19
Iteration:  3390charge 0 multiplicity 1
 C         0.002779         0.056862        -0.136914
 C         1.428300         0.061030        -0.012629
 C         2.075656         1.153086        -0.840611
 C         3.628608         0.964033        -0.398115
 C         4.161561        -0.401314        -0.967802
 C         3.466511        -1.098550         0.166206
 O         2.045691        -1.322003        -0.224464
 C         3.390646         0.224274         0.972213
 O         1.950047         0.383746         1.300959
 H        -0.475324        -0.773910         0.344056
 H        -0.478453         0.905409         0.194311
 H        -0.109553        -0.208890        -1.171679
 H         2.038563         1.136690        -1.979962
 H         1.736672         2.102826        -0.273012
 H         4.328452         1.790511        -0.345140
 H         3.856290        -0.444746        -2.018269
 H         5.240623        -0.456703        -0.935714
 H         3.790709        -2.025164         0.770436
 H         4.012795         0.296151         1.889168
