19
Iteration:   840
 C        -0.021067        -0.113448         0.111999
 C         1.443858         0.124595        -0.019653
 C         2.160452         1.119739        -0.946417
 C         3.613337         0.955004        -0.407195
 C         4.306194        -0.454853        -0.812166
 C         3.318059        -1.105260         0.155141
 O         2.057955        -1.215879        -0.447069
 C         3.335880         0.259238         0.942427
 O         1.963719         0.467906         1.288797
 H        -0.255089        -0.754801         0.913277
 H        -0.654635         0.920658         0.147640
 H        -0.350701        -0.445141        -0.890896
 H         2.121856         0.878311        -1.975260
 H         1.637680         2.089731        -0.745591
 H         4.109723         1.832216        -0.293861
 H         4.155407        -0.689286        -1.882690
 H         5.272944        -0.691294        -0.443419
 H         3.457474        -2.088209         0.692878
 H         4.002814         0.327796         1.797515
