19
Iteration:  2988charge 0 multiplicity 1
 C        -0.026962        -0.102792        -0.136438
 C         1.472321         0.083116         0.005684
 C         2.130100         1.169002        -0.845457
 C         3.648937         0.907485        -0.397432
 C         4.130348        -0.385775        -0.938306
 C         3.381605        -1.126060         0.175056
 O         2.026144        -1.184566        -0.368075
 C         3.370464         0.219757         1.017421
 O         2.001750         0.426735         1.370640
 H        -0.472371        -0.988448         0.435596
 H        -0.463899         0.873156         0.089159
 H        -0.291849        -0.366153        -1.191017
 H         1.975893         1.185446        -1.956028
 H         1.975851         2.232446        -0.256862
 H         4.411467         1.691164        -0.351990
 H         3.959743        -0.646335        -1.956197
 H         5.288678        -0.496373        -0.831466
 H         3.679236        -2.125851         0.525272
 H         3.930617         0.419090         1.971350
