19
Iteration:  3386
 C         0.007085         0.019790        -0.156007
 C         1.506933         0.075317         0.035161
 C         2.086530         1.185536        -0.830414
 C         3.623823         0.956152        -0.419600
 C         4.194152        -0.410481        -0.994651
 C         3.413741        -1.115062         0.175269
 O         2.035795        -1.308203        -0.237253
 C         3.376098         0.239809         0.956017
 O         1.925080         0.371346         1.330876
 H        -0.536521        -0.845667         0.364497
 H        -0.462645         1.016061         0.128597
 H        -0.203740        -0.240928        -1.207750
 H         1.998870         1.071875        -1.940328
 H         1.761445         2.077910        -0.235918
 H         4.378609         1.782184        -0.394833
 H         3.811825        -0.608399        -2.049818
 H         5.266097        -0.304362        -0.836248
 H         3.791478        -1.958634         0.723876
 H         4.041718         0.409551         1.847747
