19
Iteration:  2872charge 0 multiplicity 1
 C         0.019658        -0.105743         0.027300
 C         1.382456         0.059723        -0.123012
 C         2.241562         1.144483        -0.927793
 C         3.662542         0.972570        -0.345826
 C         4.218781        -0.358090        -0.901745
 C         3.374696        -1.171312         0.167821
 O         2.001078        -1.186401        -0.302550
 C         3.313759         0.196242         0.970577
 O         1.964451         0.449817         1.282595
 H        -0.283778        -1.001917         0.635282
 H        -0.327502         0.805738         0.466731
 H        -0.464559        -0.284607        -0.943523
 H         2.199226         1.078048        -2.004684
 H         1.863386         2.065897        -0.630517
 H         4.091769         1.965568        -0.279821
 H         3.909774        -0.476643        -1.977072
 H         5.246185        -0.505773        -0.895773
 H         3.574011        -2.163297         0.650238
 H         3.904054         0.277936         1.971783
