19
Iteration:   238
 C        -0.131752        -0.108516        -0.177230
 C         1.461638         0.018214        -0.032080
 C         2.151978         1.093616        -0.783988
 C         3.695806         0.952696        -0.435472
 C         4.082930        -0.399027        -0.968611
 C         3.418114        -1.065651         0.156102
 O         2.128274        -1.222759        -0.229385
 C         3.343249         0.207945         1.014069
 O         2.046886         0.528543         1.320327
 H        -0.554188        -0.603577         0.795842
 H        -0.459049         0.886676        -0.047939
 H        -0.516148        -0.605364        -1.154145
 H         1.988937         0.998957        -1.891142
 H         1.769666         2.007320        -0.312774
 H         4.115405         1.892424        -0.710684
 H         3.514213        -0.726868        -1.830638
 H         5.192178        -0.495809        -1.106005
 H         3.681006        -2.076172         0.715586
 H         3.934836         0.270765         1.900676
