19
Iteration:  3863
 C        -0.051816         0.019437         0.058839
 C         1.423318         0.091455         0.015515
 C         2.157019         1.033311        -0.933581
 C         3.576940         0.930581        -0.346024
 C         4.315802        -0.296943        -0.901156
 C         3.422596        -1.122605         0.061118
 O         1.998721        -1.199822        -0.369457
 C         3.307414         0.177046         1.003339
 O         1.983573         0.397857         1.283167
 H        -0.208732        -0.688003         0.920202
 H        -0.379896         1.017000         0.308636
 H        -0.278855        -0.415581        -0.895083
 H         2.082991         0.578377        -1.948601
 H         1.704016         2.087987        -0.853281
 H         4.054424         1.967556        -0.354358
 H         4.369102        -0.398045        -2.033449
 H         5.357784        -0.526296        -0.409660
 H         3.669431        -2.164586         0.285510
 H         3.817152         0.215393         1.944577
