19
Iteration:  2372
 C        -0.136550         0.079170         0.118121
 C         1.399584         0.073715         0.005657
 C         2.188735         1.146525        -0.928906
 C         3.593512         0.977621        -0.437375
 C         4.296350        -0.368205        -0.848034
 C         3.524776        -1.135549         0.137063
 O         2.061603        -1.275988        -0.373740
 C         3.331293         0.232094         0.934960
 O         1.908393         0.303219         1.265321
 H        -0.372318        -0.596425         0.932226
 H        -0.452745         1.149224         0.045078
 H        -0.382458        -0.416574        -0.877512
 H         2.034903         0.880900        -1.963193
 H         1.792367         2.059095        -0.543631
 H         4.157744         1.919884        -0.457042
 H         4.121102        -0.601153        -1.933398
 H         5.368096        -0.350339        -0.642649
 H         3.768922        -2.160667         0.571042
 H         3.793772         0.438514         1.905545
