19
Iteration:  3201charge 0 multiplicity 1
 C        -0.090465         0.030787         0.016482
 C         1.424203         0.118548        -0.009367
 C         2.153810         1.138116        -0.892315
 C         3.620958         0.984838        -0.376133
 C         4.258651        -0.345529        -0.866354
 C         3.370116        -1.160832         0.089338
 O         2.040051        -1.263518        -0.400505
 C         3.345356         0.235441         0.989802
 O         1.988258         0.306739         1.323189
 H        -0.445927        -0.824577         0.495673
 H        -0.451872         0.807498         0.678308
 H        -0.464425        -0.053241        -0.975395
 H         2.116897         0.664555        -1.925727
 H         2.015593         2.262867        -0.795069
 H         4.363396         1.799638        -0.460836
 H         4.245588        -0.599862        -1.957096
 H         5.273156        -0.260416        -0.586568
 H         3.659998        -2.077360         0.612655
 H         3.962549         0.397236         1.814720
