19
Iteration:  2398
 C        -0.060983        -0.124029        -0.045189
 C         1.437590         0.100117        -0.055167
 C         2.199811         1.146557        -0.841127
 C         3.622821         0.954021        -0.386697
 C         4.254259        -0.390062        -0.936461
 C         3.347567        -1.090146         0.074162
 O         2.005029        -1.207455        -0.246411
 C         3.321977         0.199308         0.952732
 O         2.026997         0.462992         1.320138
 H        -0.138905        -1.066377         0.611834
 H        -0.468553         0.838448         0.191689
 H        -0.253911        -0.437597        -1.054351
 H         1.968382         0.873606        -1.878753
 H         1.625255         2.027146        -0.471584
 H         4.187299         1.864514        -0.370395
 H         4.032972        -0.500991        -1.982974
 H         5.296570        -0.505502        -0.723511
 H         3.583800        -2.065012         0.502552
 H         3.901490         0.167905         1.933104
