19
Iteration:  1940charge 0 multiplicity 1
 C        -0.016563        -0.119321         0.146698
 C         1.450779         0.045983        -0.076594
 C         2.114293         1.095074        -0.928541
 C         3.691642         0.961757        -0.400060
 C         4.278015        -0.434884        -0.848414
 C         3.391784        -1.097038         0.158976
 O         2.017199        -1.183507        -0.430752
 C         3.307330         0.253860         0.975251
 O         1.917401         0.436882         1.258613
 H        -0.226872        -0.457670         1.144541
 H        -0.421897         0.993616         0.115387
 H        -0.711994        -0.545600        -0.673095
 H         2.248796         1.029819        -1.981751
 H         1.768821         2.124294        -0.701653
 H         4.256446         2.028462        -0.270655
 H         4.344045        -0.664750        -1.961317
 H         5.317477        -0.517914        -0.615257
 H         3.651233        -2.125447         0.610897
 H         3.931873         0.442115         1.834734
