19
Iteration:   323
 C        -0.022415         0.158911         0.055287
 C         1.459110         0.047323        -0.052713
 C         2.155927         1.044070        -0.985051
 C         3.588504         0.951755        -0.406795
 C         4.250297        -0.288217        -0.962912
 C         3.434734        -1.038929         0.100500
 O         2.087218        -1.317690        -0.244270
 C         3.274011         0.205232         1.020536
 O         1.903388         0.287969         1.288028
 H        -0.255876        -0.773998         0.589114
 H        -0.302327         1.020770         0.726110
 H        -0.678514         0.064940        -0.820188
 H         2.111741         0.826645        -2.081928
 H         1.685300         1.996258        -0.699740
 H         4.318638         1.779926        -0.603604
 H         4.306539        -0.756421        -1.948277
 H         5.268708        -0.177319        -0.451876
 H         3.875079        -2.016078         0.585725
 H         3.858512         0.370753         1.859336
