19
Iteration:  1990
 C        -0.024299         0.061919        -0.129752
 C         1.480543         0.009957         0.095724
 C         2.124879         1.032680        -0.884455
 C         3.615893         0.983749        -0.448908
 C         4.239332        -0.332347        -0.927846
 C         3.409906        -1.063479         0.101497
 O         2.014313        -1.263765        -0.238776
 C         3.320304         0.212405         0.983091
 O         2.005940         0.371299         1.351473
 H        -0.651712        -0.477580         0.614205
 H        -0.543751         0.995961        -0.157177
 H        -0.225240        -0.266496        -1.113289
 H         2.055193         0.673789        -1.961306
 H         1.735057         2.086311        -0.697303
 H         4.024872         1.931075        -0.368437
 H         3.886902        -0.587496        -1.956187
 H         5.366454        -0.290354        -0.914322
 H         3.681121        -2.031864         0.569328
 H         4.073842         0.211847         1.800604
