19
Iteration:  3362charge 0 multiplicity 1
 C        -0.101755        -0.095611        -0.134707
 C         1.428838         0.107383        -0.006044
 C         2.115876         1.151621        -0.856525
 C         3.645507         0.925208        -0.471364
 C         4.225930        -0.440028        -0.923802
 C         3.429369        -1.081676         0.121291
 O         2.009411        -1.106628        -0.290207
 C         3.357907         0.205151         1.020295
 O         2.027769         0.360789         1.407292
 H        -0.475273        -0.870017         0.556189
 H        -0.703039         0.907492        -0.085494
 H        -0.242511        -0.645681        -1.116762
 H         2.074265         0.975022        -1.893334
 H         1.965703         2.123567        -0.491422
 H         4.298991         1.811121        -0.533585
 H         3.983577        -0.602546        -1.968826
 H         5.324546        -0.464720        -0.558791
 H         3.665559        -2.056497         0.470583
 H         4.015406         0.322890         1.847031
