19
Iteration:  3567
 C        -0.016479        -0.020035         0.048879
 C         1.454946         0.093601        -0.012371
 C         2.152949         1.144737        -0.877078
 C         3.599220         0.894177        -0.379787
 C         4.254209        -0.380633        -0.923816
 C         3.396994        -1.111553         0.203381
 O         2.123664        -1.242358        -0.373983
 C         3.248150         0.210710         1.002995
 O         1.952171         0.417162         1.210293
 H        -0.265740        -0.767320         0.750650
 H        -0.467085         0.930237         0.361043
 H        -0.660355        -0.138226        -0.774634
 H         1.954241         0.925415        -1.964078
 H         1.767275         2.236207        -0.836814
 H         4.194091         1.821287        -0.500359
 H         3.975984        -0.793295        -1.851128
 H         5.292689        -0.381147        -0.769808
 H         3.777254        -2.106762         0.607456
 H         3.864521         0.331358         1.929678
