19
Iteration:  4043
 C        -0.096491        -0.055335        -0.061720
 C         1.402590         0.030583         0.005878
 C         2.215454         1.155102        -0.869046
 C         3.628177         0.955561        -0.364759
 C         4.247316        -0.365992        -0.952184
 C         3.409219        -1.133905         0.023191
 O         1.981416        -1.158066        -0.242972
 C         3.383131         0.195380         0.978387
 O         2.000834         0.382289         1.343434
 H        -0.378549        -0.925375         0.556982
 H        -0.549082         0.903499         0.092359
 H        -0.387472        -0.314722        -1.033321
 H         2.155963         1.027994        -1.973207
 H         1.597786         2.128526        -0.642728
 H         4.037537         1.906573        -0.262420
 H         4.182963        -0.583297        -2.045529
 H         5.315403        -0.352014        -0.597596
 H         3.603040        -2.108019         0.517047
 H         4.156236         0.181317         1.751505
