19
Iteration:   505
 C        -0.046094        -0.134874        -0.097454
 C         1.495373         0.110310         0.029280
 C         2.181778         1.194937        -0.868644
 C         3.622802         0.939160        -0.448202
 C         4.124262        -0.458922        -0.914793
 C         3.363945        -1.121448         0.116673
 O         2.039534        -1.237599        -0.317134
 C         3.373252         0.341702         1.025222
 O         2.000837         0.377082         1.376808
 H        -0.261676        -1.052583         0.330631
 H        -0.630199         0.782754         0.435454
 H        -0.427014        -0.069277        -1.113131
 H         2.104784         1.037125        -1.971932
 H         1.855778         2.219726        -0.572854
 H         4.273516         1.891334        -0.495192
 H         3.813292        -0.714715        -1.944145
 H         5.190285        -0.514440        -0.810950
 H         3.653198        -2.074238         0.409679
 H         4.122005         0.637746         1.761862
