19
Iteration:  1945charge 0 multiplicity 1
 C         0.009999        -0.096507         0.153516
 C         1.404384         0.045699        -0.055702
 C         2.142115         1.084177        -0.947054
 C         3.670531         1.025045        -0.378980
 C         4.323080        -0.398917        -0.861595
 C         3.392624        -1.119084         0.173210
 O         1.989399        -1.193620        -0.410767
 C         3.307857         0.194724         0.940862
 O         1.900077         0.441394         1.239421
 H        -0.308914        -0.414532         1.176391
 H        -0.390171         0.848796         0.065889
 H        -0.537370        -0.475902        -0.641911
 H         2.177947         0.972769        -2.073811
 H         1.848158         2.082861        -0.632613
 H         4.315344         1.849754        -0.358038
 H         4.153614        -0.652001        -1.883767
 H         5.413083        -0.562464        -0.533050
 H         3.863007        -1.971373         0.569827
 H         3.942589         0.363954         1.836763
