19
Iteration:  4337
 C        -0.046437        -0.015111        -0.106643
 C         1.488372        -0.016179        -0.065256
 C         2.237587         1.158222        -0.840691
 C         3.648152         1.049775        -0.317092
 C         4.158212        -0.368878        -0.953286
 C         3.371257        -1.093404         0.081347
 O         2.023411        -1.315400        -0.183136
 C         3.330103         0.227223         0.935445
 O         1.984164         0.418167         1.314959
 H        -0.661998        -0.719572         0.532680
 H        -0.568255         0.882259         0.254561
 H        -0.387735        -0.139746        -1.192774
 H         2.154628         0.943721        -1.938116
 H         1.720906         2.094839        -0.610943
 H         4.428342         1.873250        -0.361957
 H         3.712173        -0.499225        -1.836436
 H         5.212303        -0.611142        -0.952069
 H         3.762358        -2.070388         0.495349
 H         3.984756         0.128790         1.783892
