19
Iteration:  2346
 C        -0.054445         0.127146         0.065129
 C         1.416096        -0.036016        -0.000469
 C         2.144792         1.013835        -0.983093
 C         3.553844         0.980162        -0.370783
 C         4.275191        -0.304248        -0.901593
 C         3.496939        -1.123178         0.121090
 O         2.031179        -1.199332        -0.384118
 C         3.381248         0.194825         0.958456
 O         1.902435         0.321119         1.353661
 H        -0.352412        -0.279379         1.026275
 H        -0.204554         1.174974        -0.096789
 H        -0.475746        -0.319515        -0.790260
 H         2.180110         0.565176        -2.046076
 H         1.685011         2.055032        -0.740574
 H         4.044229         2.013949        -0.364166
 H         4.251023        -0.436149        -1.967506
 H         5.397401        -0.344160        -0.539847
 H         3.717225        -2.090622         0.542430
 H         3.974366         0.303574         1.880687
