19
Iteration:  1391
 C        -0.107439         0.136166         0.032710
 C         1.429699         0.023334         0.043024
 C         2.195689         1.014280        -0.895517
 C         3.612636         1.000667        -0.390177
 C         4.324141        -0.284885        -0.870041
 C         3.472098        -1.056525         0.024148
 O         1.955563        -1.317176        -0.384270
 C         3.294718         0.171290         0.975646
 O         1.970853         0.327903         1.345249
 H        -0.301885        -0.392343         0.850281
 H        -0.420153         1.200475         0.020833
 H        -0.557232        -0.450507        -0.754577
 H         2.055767         0.740064        -1.970253
 H         1.977543         2.114461        -0.803033
 H         4.005772         1.998360        -0.636772
 H         4.573523        -0.498024        -1.910949
 H         5.321272        -0.455209        -0.420447
 H         3.612331        -2.068544         0.471440
 H         3.970130         0.408157         1.823513
