19
Iteration:  2198
 C        -0.099511         0.062550         0.056588
 C         1.496646         0.055232        -0.009262
 C         2.203802         1.095327        -0.898296
 C         3.607893         0.982677        -0.465035
 C         4.251072        -0.372015        -0.871283
 C         3.459094        -1.062936         0.148858
 O         2.065393        -1.238887        -0.375250
 C         3.258100         0.217657         0.999808
 O         1.931630         0.315787         1.296050
 H        -0.416170        -0.577976         0.904013
 H        -0.629278         1.018222         0.426654
 H        -0.655278        -0.161014        -0.919376
 H         2.187313         0.686177        -1.909287
 H         1.786993         2.105789        -0.815749
 H         4.187531         1.874692        -0.490718
 H         4.237670        -0.726422        -1.947011
 H         5.295234        -0.488402        -0.637850
 H         3.780731        -2.158774         0.353369
 H         3.871130         0.282080         1.848235
