19
Iteration:  4458charge 0 multiplicity 1
 C        -0.043007         0.051219        -0.150033
 C         1.458379         0.050200         0.009693
 C         2.089721         1.159997        -0.797609
 C         3.598226         0.930796        -0.385961
 C         4.216708        -0.384557        -0.962555
 C         3.407558        -1.165257         0.086784
 O         2.060166        -1.220723        -0.215037
 C         3.366947         0.236320         0.970628
 O         1.991485         0.338353         1.298595
 H        -0.509492        -0.534035         0.670067
 H        -0.479795         1.080965        -0.043680
 H        -0.195515        -0.500075        -1.179491
 H         1.838243         0.970296        -1.968306
 H         1.726738         2.232550        -0.526338
 H         4.264437         1.844518        -0.330948
 H         4.065086        -0.575995        -2.031498
 H         5.308086        -0.443426        -0.616391
 H         3.786700        -2.097442         0.677413
 H         3.958125         0.419389         1.847142
