19
Iteration:  2882charge 0 multiplicity 1
 C        -0.084739        -0.073102         0.078471
 C         1.543424         0.044211        -0.162855
 C         2.164377         1.143825        -0.899466
 C         3.630090         0.928559        -0.339408
 C         4.332770        -0.395860        -0.915705
 C         3.331059        -1.097180         0.156272
 O         2.014087        -1.199268        -0.344269
 C         3.294983         0.217080         0.994417
 O         1.945989         0.442983         1.268065
 H        -0.188493        -0.838240         0.895355
 H        -0.538702         0.791485         0.483103
 H        -0.596084        -0.277008        -0.862685
 H         2.190014         1.133379        -1.952034
 H         1.757591         1.990511        -0.574771
 H         4.285307         1.792130        -0.364353
 H         4.020466        -0.605562        -1.964571
 H         5.383435        -0.503918        -0.735019
 H         3.600555        -2.093745         0.455068
 H         3.902785         0.331201         1.976309
