19
Iteration:   750charge 0 multiplicity 1
 C        -0.072333        -0.035786        -0.055857
 C         1.430457         0.093017        -0.044944
 C         2.168228         1.182839        -0.867956
 C         3.630617         0.905959        -0.436061
 C         4.234453        -0.390593        -0.924511
 C         3.400428        -1.134414         0.193609
 O         2.025249        -1.242128        -0.245294
 C         3.357078         0.255892         0.930388
 O         1.958948         0.394375         1.295826
 H        -0.198006        -1.024341         0.555153
 H        -0.634604         0.790203         0.426859
 H        -0.358671        -0.279286        -1.074249
 H         1.989915         0.999707        -1.934334
 H         1.891512         2.241256        -0.590762
 H         4.268131         1.817255        -0.366158
 H         4.016500        -0.726192        -1.933384
 H         5.312007        -0.423045        -0.726785
 H         3.814157        -2.028185         0.661065
 H         4.084203         0.501400         1.722156
