19
Iteration:  4371
 C        -0.005003         0.080789        -0.033843
 C         1.392616         0.086481         0.099825
 C         2.137503         1.118988        -0.851876
 C         3.590605         0.930013        -0.415342
 C         4.263033        -0.377924        -0.909457
 C         3.439406        -1.144404         0.088849
 O         2.088623        -1.245963        -0.306544
 C         3.327959         0.255438         0.942552
 O         1.928687         0.338965         1.294161
 H        -0.399075        -0.896911         0.330677
 H        -0.531778         1.020868         0.241527
 H        -0.303768        -0.021292        -1.141984
 H         1.960727         0.820673        -1.924300
 H         1.721370         2.099632        -0.734246
 H         4.210236         1.886205        -0.361636
 H         4.114716        -0.761092        -1.816069
 H         5.345548        -0.525204        -0.784774
 H         3.667436        -2.114545         0.622160
 H         3.907606         0.437301         1.804927
