19
Iteration:  2870charge 0 multiplicity 1
 C         0.013912        -0.107522         0.012482
 C         1.373935         0.073138        -0.092255
 C         2.249104         1.150343        -0.932557
 C         3.668228         0.976879        -0.343110
 C         4.187352        -0.350835        -0.904994
 C         3.388011        -1.175947         0.162856
 O         2.001664        -1.199225        -0.298841
 C         3.309278         0.192466         0.982290
 O         1.965744         0.447662         1.277124
 H        -0.238115        -1.022297         0.564365
 H        -0.300323         0.810539         0.425576
 H        -0.471097        -0.273739        -0.943024
 H         2.183806         1.035503        -1.983464
 H         1.899386         2.064576        -0.671356
 H         4.121152         1.959972        -0.274720
 H         3.914625        -0.513593        -1.946068
 H         5.294976        -0.507658        -0.888123
 H         3.592931        -2.079100         0.638318
 H         3.967026         0.278448         1.891886
