19
Iteration:   237
 C        -0.129042        -0.101294        -0.176489
 C         1.465288         0.009189        -0.026396
 C         2.147475         1.087575        -0.789662
 C         3.702919         0.949146        -0.440602
 C         4.083715        -0.396469        -0.969832
 C         3.422511        -1.060340         0.147831
 O         2.128548        -1.221770        -0.227937
 C         3.336837         0.203295         1.016904
 O         2.042285         0.529965         1.327450
 H        -0.540667        -0.591443         0.756548
 H        -0.456328         0.954263        -0.040111
 H        -0.475805        -0.609101        -1.133744
 H         1.999771         0.958303        -1.903994
 H         1.739604         1.983915        -0.296955
 H         4.116658         1.936622        -0.694469
 H         3.487284        -0.733456        -1.823705
 H         5.211252        -0.470456        -1.135514
 H         3.674840        -2.103066         0.730424
 H         3.886703         0.281941         1.895757
