19
Iteration:  1675charge 0 multiplicity 1
 C        -0.080328        -0.041546         0.148408
 C         1.426684         0.075093        -0.113256
 C         2.213709         1.102099        -0.969191
 C         3.670374         0.937367        -0.397702
 C         4.298707        -0.350614        -0.894682
 C         3.435848        -1.075146         0.200655
 O         1.957576        -1.193382        -0.353038
 C         3.288867         0.224281         1.005049
 O         1.968292         0.372042         1.222117
 H        -0.290965        -1.033677         0.641813
 H        -0.436495         0.778725         0.775448
 H        -0.684268        -0.101772        -0.810215
 H         2.174289         1.029603        -2.004948
 H         1.887452         2.054860        -0.698574
 H         4.136161         1.964206        -0.515502
 H         4.187336        -0.915936        -1.805112
 H         5.277445        -0.608347        -0.585395
 H         3.538524        -2.095281         0.672053
 H         4.071159         0.441217         1.750364
