19
Iteration:  2234charge 0 multiplicity 1
 C        -0.096978         0.105754         0.055502
 C         1.415494         0.019207         0.034725
 C         2.211701         1.031107        -0.932663
 C         3.615559         1.035212        -0.350186
 C         4.308883        -0.269751        -0.877126
 C         3.391953        -1.148040         0.048882
 O         2.001693        -1.306503        -0.267564
 C         3.326756         0.147286         0.927504
 O         1.959437         0.410532         1.242854
 H        -0.430204        -0.861529         0.432034
 H        -0.348896         0.985050         0.604056
 H        -0.457610         0.011696        -0.960256
 H         2.197836         0.655394        -1.975335
 H         1.608185         2.010864        -1.035174
 H         4.093256         1.970935        -0.227021
 H         4.324522        -0.637718        -1.948293
 H         5.295731        -0.267277        -0.357993
 H         3.980476        -2.015791         0.240215
 H         3.996764         0.259883         1.827409
