19
Iteration:  1126
 C        -0.066093         0.071165         0.010137
 C         1.423708        -0.000861         0.015187
 C         2.130807         1.049404        -0.877685
 C         3.614941         0.921476        -0.387034
 C         4.351155        -0.341365        -0.869912
 C         3.364576        -1.077280         0.079451
 O         2.021509        -1.257558        -0.418351
 C         3.352757         0.249485         1.020813
 O         1.990712         0.425797         1.299141
 H        -0.502698        -0.695001         0.753005
 H        -0.304296         0.934408         0.504421
 H        -0.524523        -0.114312        -0.934967
 H         2.112062         0.571285        -1.956591
 H         1.502009         1.909029        -0.890607
 H         4.024774         1.861818        -0.331888
 H         4.252609        -0.550517        -1.923566
 H         5.370535        -0.421578        -0.412904
 H         3.539664        -2.177129         0.397845
 H         3.997017         0.355191         1.890162
