19
Iteration:  3874charge 0 multiplicity 1
 C        -0.051360         0.018487         0.047556
 C         1.463882         0.080140         0.006448
 C         2.177137         1.054810        -0.933547
 C         3.598115         1.038119        -0.364997
 C         4.361030        -0.279136        -0.870267
 C         3.354393        -1.206203         0.017939
 O         1.992107        -1.223451        -0.276789
 C         3.307558         0.162634         0.942322
 O         1.973117         0.365213         1.322075
 H        -0.611998        -0.586630         0.825375
 H        -0.599704         0.956185         0.050490
 H        -0.593615        -0.326403        -0.824962
 H         2.084646         0.701347        -1.997426
 H         1.610771         2.066677        -1.025380
 H         4.146991         2.038441        -0.152779
 H         4.354264        -0.493165        -2.022832
 H         5.515447        -0.401959        -0.564794
 H         3.769246        -2.190461         0.257022
 H         4.073524         0.367217         1.672930
