19
Iteration:  2008charge 0 multiplicity 1
 C        -0.046810         0.041196        -0.167226
 C         1.455017         0.127873         0.055552
 C         2.138596         1.160008        -0.840748
 C         3.581771         0.928794        -0.381495
 C         4.159826        -0.346120        -1.037289
 C         3.437581        -1.149724         0.202829
 O         2.086716        -1.351630        -0.227722
 C         3.380093         0.237430         0.951676
 O         1.946439         0.383189         1.337119
 H        -0.409261        -0.828446         0.476850
 H        -0.419750         1.034781         0.133637
 H        -0.116909        -0.140923        -1.271824
 H         1.843630         0.966883        -1.844486
 H         1.722055         2.052999        -0.548982
 H         4.228829         1.878559        -0.628950
 H         4.007087        -0.662990        -2.009223
 H         5.224301        -0.476352        -0.838419
 H         3.827413        -2.034681         0.677141
 H         4.011280         0.534421         1.794880
