19
Iteration:  4662charge 0 multiplicity 1
 C        -0.106123        -0.051249         0.004575
 C         1.363231         0.050332         0.059951
 C         2.191866         1.131474        -0.924017
 C         3.614991         0.964380        -0.403244
 C         4.331630        -0.331336        -0.882434
 C         3.361102        -1.140243         0.108406
 O         2.049173        -1.144364        -0.355434
 C         3.325529         0.169045         0.947355
 O         1.993713         0.356203         1.336642
 H        -0.475452        -0.651196         0.914403
 H        -0.542539         1.004858         0.104529
 H        -0.600160        -0.466040        -0.905576
 H         2.182649         0.720042        -1.939150
 H         1.909471         2.253664        -0.938049
 H         4.308510         1.858652        -0.404175
 H         4.325132        -0.494872        -2.003439
 H         5.227533        -0.488274        -0.427993
 H         3.708536        -2.182873         0.300268
 H         4.004676         0.375920         1.757760
