19
Iteration:  4673charge 0 multiplicity 1
 C        -0.092327        -0.025017         0.079589
 C         1.504230         0.092816        -0.042696
 C         2.165137         1.053991        -0.946388
 C         3.640333         0.932920        -0.389256
 C         4.329054        -0.313744        -0.869283
 C         3.392005        -1.114630         0.024280
 O         1.978881        -1.155707        -0.321779
 C         3.348784         0.162752         1.053764
 O         1.915840         0.352626         1.254266
 H        -0.373855        -0.628259         1.016027
 H        -0.305704         1.065233         0.296364
 H        -0.460581        -0.476565        -0.887852
 H         2.039324         0.875515        -2.027627
 H         1.821799         2.136343        -0.706276
 H         3.973338         2.006862        -0.370406
 H         4.414451        -0.586168        -1.967014
 H         5.284128        -0.312408        -0.589966
 H         3.678505        -2.095425         0.479650
 H         3.886144         0.221083         1.995982
