19
Iteration:  2134
 C        -0.046555        -0.022300        -0.116845
 C         1.411244         0.090389         0.027592
 C         2.242439         1.133336        -0.856134
 C         3.619919         0.993902        -0.353513
 C         4.202418        -0.365344        -0.999531
 C         3.414562        -1.122426         0.114543
 O         1.976710        -1.247638        -0.218372
 C         3.384090         0.211727         0.955144
 O         1.972512         0.369548         1.324945
 H        -0.237247        -0.670606         0.721844
 H        -0.642675         0.921215        -0.286281
 H        -0.044961        -0.572975        -1.119994
 H         2.063726         0.766043        -1.893048
 H         1.713315         2.182114        -0.656733
 H         4.187760         1.824757        -0.121185
 H         3.636533        -0.426993        -2.018155
 H         5.289608        -0.541604        -1.030322
 H         3.820863        -2.023102         0.732352
 H         4.009774         0.386581         1.800471
