19
Iteration:  4536charge 0 multiplicity 1
 C        -0.066354        -0.026339         0.102228
 C         1.444545         0.017230        -0.126729
 C         2.195279         1.087580        -0.859108
 C         3.616938         0.971662        -0.365695
 C         4.304552        -0.407835        -0.855881
 C         3.330765        -1.080224         0.070834
 O         2.018311        -1.225796        -0.397536
 C         3.331748         0.278965         1.001963
 O         1.958812         0.389601         1.281523
 H        -0.416439        -0.855973         0.677910
 H        -0.396533         0.931733         0.549632
 H        -0.607127        -0.190267        -0.877911
 H         2.059736         0.950308        -1.993638
 H         1.852243         2.095883        -0.738314
 H         4.161006         1.914196        -0.328390
 H         4.312344        -0.695483        -1.846977
 H         5.392090        -0.553571        -0.552056
 H         3.739156        -1.937881         0.638291
 H         4.099128         0.453841         1.793794
