19
Iteration:  2844charge 0 multiplicity 1
 C        -0.075035        -0.002311        -0.146508
 C         1.355620         0.089389         0.011971
 C         2.162326         1.091575        -0.859447
 C         3.670247         0.952962        -0.413545
 C         4.234923        -0.386429        -1.000892
 C         3.416859        -1.124759         0.119793
 O         2.039811        -1.226660        -0.194853
 C         3.392383         0.254301         1.012804
 O         1.975475         0.367498         1.373259
 H        -0.397056        -0.998173         0.074664
 H        -0.664562         0.890856         0.252290
 H        -0.257013         0.033578        -1.236155
 H         2.106479         0.870781        -1.969596
 H         1.665084         2.160029        -0.674827
 H         4.114589         1.968135        -0.480408
 H         4.046449        -0.529840        -2.078079
 H         5.375053        -0.536730        -0.855003
 H         3.684010        -2.120875         0.557427
 H         3.918592         0.338145         1.959413
