19
Iteration:    38
 C        -0.135924        -0.147415         0.178303
 C         1.415577         0.084150        -0.049294
 C         2.110024         1.078023        -0.950435
 C         3.623231         0.894777        -0.444263
 C         4.345530        -0.436501        -0.826134
 C         3.382213        -1.095719         0.136343
 O         2.040205        -1.074476        -0.328439
 C         3.361646         0.193993         0.980463
 O         1.985342         0.513508         1.181410
 H        -0.279602        -0.690951         1.145113
 H        -0.678153         0.819277         0.133430
 H        -0.518411        -0.765516        -0.656649
 H         2.017863         0.812939        -2.009768
 H         1.794115         2.125610        -0.897519
 H         4.218801         1.817097        -0.536615
 H         4.399275        -0.860369        -1.860150
 H         5.432505        -0.521071        -0.664638
 H         3.686753        -2.152077         0.588902
 H         4.011285         0.373204         1.888940
