19
Iteration:  3314charge 0 multiplicity 1
 C        -0.050836         0.070378         0.071334
 C         1.397489        -0.004571        -0.100365
 C         2.187852         1.096513        -0.965696
 C         3.665863         1.028214        -0.360579
 C         4.329688        -0.291046        -0.940805
 C         3.364363        -1.117877         0.121911
 O         2.024886        -1.241420        -0.330390
 C         3.331152         0.203475         1.068773
 O         1.904046         0.298588         1.246707
 H        -0.097625        -0.492746         1.022691
 H        -0.283860         1.069983         0.203111
 H        -0.709204        -0.515051        -0.536523
 H         2.202360         0.839888        -2.047657
 H         1.870268         2.121295        -0.720629
 H         4.208513         1.984547        -0.274982
 H         4.186713        -0.565008        -2.010858
 H         5.296499        -0.394914        -0.440235
 H         3.462614        -2.230663         0.487212
 H         4.012821         0.271672         1.997347
