19
Iteration:  2306charge 0 multiplicity 1
 C        -0.067608        -0.108646        -0.063821
 C         1.509996         0.069647         0.008338
 C         2.227455         1.149199        -0.844251
 C         3.663346         0.988275        -0.374524
 C         4.228519        -0.373704        -0.986062
 C         3.395335        -1.099815         0.095903
 O         1.950571        -1.210139        -0.224824
 C         3.332632         0.196746         0.953997
 O         1.939961         0.414901         1.313485
 H        -0.487635        -0.903478         0.541541
 H        -0.563389         0.908184         0.143162
 H        -0.335799        -0.526925        -1.096231
 H         2.145897         1.188160        -1.911212
 H         1.785760         2.068188        -0.530811
 H         4.359407         1.877737        -0.321212
 H         3.977699        -0.582623        -2.061429
 H         5.281555        -0.482141        -0.790730
 H         3.780770        -2.134371         0.516444
 H         4.050498         0.280358         1.705410
