19
Iteration:   604
 C        -0.184063        -0.104384         0.007861
 C         1.398763         0.112717         0.052410
 C         2.161511         1.109511        -0.846997
 C         3.712630         0.934346        -0.430436
 C         4.284083        -0.393783        -0.907930
 C         3.411315        -1.122404         0.075023
 O         2.100127        -1.180217        -0.301948
 C         3.354137         0.197899         0.978207
 O         1.949959         0.478661         1.267207
 H        -0.543190        -0.698206         0.822377
 H        -0.627418         0.926756        -0.089563
 H        -0.485550        -0.629412        -0.929160
 H         1.938450         0.851517        -1.949666
 H         1.890732         2.157043        -0.626559
 H         4.157743         2.000459        -0.462196
 H         4.162920        -0.824895        -1.911346
 H         5.317315        -0.526180        -0.563851
 H         3.516687        -2.135302         0.368764
 H         3.937300         0.130487         1.843858
