19
Iteration:  2831charge 0 multiplicity 1
 C        -0.076164         0.021969        -0.233420
 C         1.527382         0.017453         0.072260
 C         2.138087         1.043857        -0.841086
 C         3.581234         0.944062        -0.420122
 C         4.265877        -0.336099        -0.943458
 C         3.431227        -1.070986         0.135707
 O         1.975658        -1.224561        -0.208970
 C         3.330309         0.199159         0.951558
 O         1.996023         0.385487         1.359543
 H        -0.711551        -0.770449         0.273355
 H        -0.424492         0.863064         0.432223
 H        -0.278472         0.180445        -1.317705
 H         1.761957         0.903351        -1.921372
 H         1.866568         2.171322        -0.441903
 H         4.244718         1.818185        -0.478200
 H         3.974447        -0.731100        -1.977812
 H         5.333060        -0.394165        -0.779454
 H         3.850029        -2.082386         0.571995
 H         4.183371         0.457886         1.663010
