19
Iteration:  2142
 C        -0.033065        -0.092369        -0.145188
 C         1.454444         0.117583         0.102388
 C         2.212400         1.169246        -0.892451
 C         3.680847         0.960488        -0.360365
 C         4.154622        -0.355837        -1.011351
 C         3.365241        -1.092425         0.129844
 O         1.994620        -1.251321        -0.237691
 C         3.405055         0.244692         0.990933
 O         1.969466         0.388934         1.342598
 H        -0.647410        -0.769951         0.551278
 H        -0.686824         0.833915        -0.199768
 H        -0.146135        -0.768571        -1.020408
 H         2.131487         1.054663        -2.000440
 H         1.692579         2.108643        -0.722418
 H         4.385904         1.847315        -0.299510
 H         3.858264        -0.438878        -2.077692
 H         5.185328        -0.690309        -0.900952
 H         3.575695        -2.173961         0.455333
 H         4.075695         0.210867         1.862907
