19
Iteration:  3076
 C        -0.076586         0.049363        -0.064053
 C         1.441289         0.117308         0.013276
 C         2.235908         1.059003        -0.895522
 C         3.580267         0.958063        -0.381338
 C         4.275513        -0.333348        -0.946081
 C         3.427179        -1.138732         0.136346
 O         1.992702        -1.216887        -0.314423
 C         3.299702         0.241221         1.007251
 O         1.977966         0.292138         1.335754
 H        -0.386083        -0.783783         0.633521
 H        -0.465610         0.999651         0.137734
 H        -0.502355        -0.127969        -1.066015
 H         2.253930         1.068167        -1.983337
 H         1.809655         2.080161        -0.579970
 H         4.099190         1.893285        -0.388394
 H         4.031339        -0.725332        -1.860467
 H         5.362667        -0.309074        -0.731804
 H         3.721676        -2.134296         0.305793
 H         4.066216         0.224949         1.839754
