19
Iteration:  4344charge 0 multiplicity 1
 C        -0.027629         0.010900        -0.145374
 C         1.413424        -0.044377        -0.073494
 C         2.232281         1.133665        -0.891306
 C         3.641416         1.019445        -0.371267
 C         4.131282        -0.302030        -0.967950
 C         3.399199        -1.104271         0.148454
 O         2.056184        -1.267775        -0.199996
 C         3.387182         0.187033         1.004564
 O         1.973821         0.385773         1.352534
 H        -0.595083        -0.745007         0.472235
 H        -0.397846         0.982308         0.300844
 H        -0.592878        -0.029251        -1.027108
 H         2.237428         1.103504        -1.991921
 H         1.627847         2.149228        -0.654613
 H         4.305603         1.857431        -0.352365
 H         3.716612        -0.756440        -2.063616
 H         5.184521        -0.578034        -1.063660
 H         3.602088        -2.029438         0.630491
 H         4.033358         0.178648         1.954901
