19
Iteration:  3775charge 0 multiplicity 1
 C        -0.090996         0.056191        -0.133553
 C         1.482851         0.055235         0.051303
 C         2.156494         1.025076        -0.875894
 C         3.641799         1.015872        -0.422496
 C         4.208459        -0.290873        -0.978803
 C         3.386503        -1.154508         0.106508
 O         2.047946        -1.208194        -0.175469
 C         3.361592         0.179403         0.997400
 O         1.961019         0.323680         1.321349
 H        -0.451165        -0.833973         0.416499
 H        -0.658456         0.818654         0.301228
 H        -0.365112        -0.086212        -1.114986
 H         2.211493         0.757023        -1.951179
 H         1.831285         2.077312        -0.950944
 H         4.083052         2.038047        -0.368571
 H         4.182066        -0.394411        -2.053550
 H         5.285693        -0.282676        -0.783796
 H         3.707971        -2.134621         0.468579
 H         3.991706         0.380147         1.860995
