19
Iteration:  3881
 C        -0.124996         0.028213         0.014902
 C         1.463384         0.054652         0.012596
 C         2.150021         1.092204        -0.966186
 C         3.652571         1.039829        -0.354621
 C         4.351997        -0.274788        -0.880674
 C         3.358808        -1.155958        -0.002523
 O         1.978790        -1.268178        -0.241305
 C         3.363251         0.158905         0.918869
 O         1.957566         0.339594         1.343436
 H        -0.492224        -0.610343         0.910372
 H        -0.456026         1.110862         0.006016
 H        -0.516521        -0.417664        -0.926882
 H         2.220137         0.721608        -1.970670
 H         1.783573         2.040156        -0.912712
 H         4.183890         1.957586        -0.176707
 H         4.226054        -0.502771        -1.958707
 H         5.315598        -0.174374        -0.509723
 H         3.688536        -2.112536         0.467396
 H         4.203781         0.351132         1.615384
