19
Iteration:  1316
 C        -0.116336        -0.111073        -0.101926
 C         1.503989         0.134061        -0.061979
 C         2.193242         1.240998        -0.832215
 C         3.630398         0.913938        -0.355615
 C         4.188188        -0.383712        -0.997668
 C         3.430518        -1.122166         0.155259
 O         1.996860        -1.219837        -0.226429
 C         3.375376         0.187985         0.963905
 O         1.993105         0.387575         1.315546
 H        -0.383241        -1.025834         0.417260
 H        -0.728672         0.801554         0.305865
 H        -0.415983        -0.212949        -1.182055
 H         2.060923         1.259080        -1.949652
 H         1.819724         2.251309        -0.339802
 H         4.311677         1.827598        -0.331139
 H         3.840315        -0.855793        -1.973762
 H         5.285632        -0.361744        -0.897168
 H         3.678252        -2.179697         0.439613
 H         3.952335         0.320532         1.934693
