19
Iteration:  2181
 C        -0.086654        -0.034680        -0.003444
 C         1.426427         0.089024         0.022512
 C         2.089102         1.209267        -0.904722
 C         3.649074         0.916287        -0.364690
 C         4.305842        -0.397653        -0.939244
 C         3.349539        -1.162662         0.180458
 O         2.060091        -1.229321        -0.331094
 C         3.367955         0.215998         0.932205
 O         1.961436         0.370730         1.277886
 H        -0.429330        -0.712973         0.781114
 H        -0.441533         0.957291        -0.001439
 H        -0.275327        -0.416301        -0.971603
 H         1.937754         1.178314        -2.002286
 H         1.847259         2.213808        -0.430975
 H         4.271110         1.858086        -0.391426
 H         4.057279        -0.714322        -1.953748
 H         5.399319        -0.316995        -0.684180
 H         3.751495        -1.990074         0.701496
 H         4.042252         0.476486         1.809152
