19
Iteration:  1432charge 0 multiplicity 1
 C        -0.047147        -0.038022        -0.004232
 C         1.412198         0.129150        -0.049218
 C         2.240455         1.190741        -0.837123
 C         3.646409         0.921411        -0.418435
 C         4.206552        -0.375580        -0.949862
 C         3.449690        -1.116729         0.143775
 O         2.015577        -1.240427        -0.315431
 C         3.318899         0.214895         1.023259
 O         1.924100         0.392323         1.292446
 H        -0.381113        -0.929749         0.668236
 H        -0.729004         0.836375         0.309104
 H        -0.289158        -0.348447        -1.034573
 H         2.101957         0.954952        -1.946087
 H         1.779596         2.090354        -0.640114
 H         4.293110         1.765351        -0.282913
 H         3.810637        -0.743004        -1.893095
 H         5.365885        -0.457604        -0.899957
 H         4.000751        -2.128989         0.412753
 H         4.008188         0.251785         1.860700
