19
Iteration:   831
 C         0.034185        -0.016690         0.074915
 C         1.443681         0.111241        -0.064766
 C         2.176678         1.082268        -0.955505
 C         3.557145         0.918839        -0.355599
 C         4.236496        -0.395484        -0.825565
 C         3.351546        -1.171219         0.139521
 O         2.060970        -1.214408        -0.382525
 C         3.291478         0.247371         0.953443
 O         1.967486         0.448721         1.262145
 H        -0.017853        -0.699862         0.888917
 H        -0.591949         0.977808         0.231510
 H        -0.293580        -0.706250        -0.784119
 H         1.856581         1.024043        -2.006633
 H         1.990535         2.088202        -0.641236
 H         3.974990         1.900177        -0.370457
 H         4.228989        -0.607390        -1.909431
 H         5.290557        -0.536355        -0.474985
 H         3.714239        -2.097779         0.675680
 H         4.017872         0.422111         1.796335
