19
Iteration:  2296charge 0 multiplicity 1
 C        -0.016986        -0.128793        -0.098861
 C         1.407804         0.056027        -0.026018
 C         2.205397         1.206741        -0.834535
 C         3.655383         0.924080        -0.420540
 C         4.188375        -0.364747        -0.957882
 C         3.395344        -1.102145         0.113600
 O         2.004812        -1.216347        -0.261105
 C         3.319665         0.229477         1.014491
 O         2.009205         0.419344         1.337699
 H        -0.254939        -0.911740         0.624198
 H        -0.593525         0.838187         0.185887
 H        -0.278378        -0.284258        -1.208361
 H         2.039569         1.089539        -1.884720
 H         1.990352         2.163596        -0.427355
 H         4.319611         1.799103        -0.339761
 H         3.782757        -0.757301        -1.921359
 H         5.238467        -0.473740        -0.981719
 H         3.539702        -2.215718         0.445954
 H         3.856030         0.486063         1.885650
