19
Iteration:  3899
 C        -0.053766         0.051307        -0.017420
 C         1.449526         0.035156         0.001943
 C         2.198353         1.053047        -0.837379
 C         3.617173         0.973139        -0.403458
 C         4.243766        -0.304189        -0.990929
 C         3.419980        -1.073559         0.122529
 O         1.993536        -1.268639        -0.285460
 C         3.307092         0.214824         1.032349
 O         2.005680         0.326146         1.282522
 H        -0.549701        -0.507248         0.682331
 H        -0.594419         0.978324        -0.137942
 H        -0.565433        -0.370804        -0.908482
 H         2.007843         0.956731        -1.934565
 H         1.717231         2.190335        -0.627862
 H         4.144590         1.922095        -0.502722
 H         4.167461        -0.464172        -2.049667
 H         5.331614        -0.533542        -0.661611
 H         3.949968        -1.966733         0.431140
 H         3.942024         0.299994         1.951533
