19
Iteration:  2428charge 0 multiplicity 1
 C        -0.071554        -0.095113        -0.144757
 C         1.428142         0.096941        -0.025550
 C         2.212569         1.179268        -0.883187
 C         3.596610         0.913469        -0.404776
 C         4.172529        -0.387565        -1.038884
 C         3.422864        -1.068982         0.151700
 O         2.056992        -1.218158        -0.191584
 C         3.371543         0.229088         0.986964
 O         1.997185         0.386233         1.409509
 H        -0.514968        -1.063897         0.313073
 H        -0.525676         0.755208         0.410546
 H        -0.240369        -0.103508        -1.259567
 H         2.000802         0.900949        -1.884989
 H         1.705281         2.103788        -0.855283
 H         4.298082         1.689537        -0.334432
 H         3.786956        -0.481378        -2.094861
 H         5.230109        -0.379053        -0.998948
 H         3.583366        -2.076712         0.648227
 H         3.944072         0.389465         1.963718
