19
Iteration:   555
 C        -0.126608         0.135760         0.071403
 C         1.416872         0.000816        -0.025163
 C         2.123860         1.037102        -0.943733
 C         3.657539         0.970822        -0.353141
 C         4.258266        -0.345278        -0.948481
 C         3.509353        -1.097600         0.048187
 O         2.080223        -1.327146        -0.301185
 C         3.299634         0.231401         1.026155
 O         1.929125         0.382990         1.270020
 H        -0.573104        -0.671039         0.739386
 H        -0.246353         1.093050         0.455339
 H        -0.647874         0.167316        -0.893893
 H         2.353565         0.714809        -1.919766
 H         1.644575         2.021292        -0.943478
 H         4.146205         1.895281        -0.362074
 H         4.274116        -0.502477        -2.038806
 H         5.306105        -0.359328        -0.547846
 H         3.765184        -2.071120         0.593024
 H         3.882784         0.442630         1.994519
