19
Iteration:  1886
 C        -0.057555        -0.004706        -0.149399
 C         1.463933         0.079133         0.022342
 C         2.170152         0.978374        -0.875743
 C         3.602286         0.980490        -0.409389
 C         4.138072        -0.338681        -0.927664
 C         3.440463        -1.078566         0.118604
 O         1.993220        -1.313306        -0.186247
 C         3.353786         0.240502         0.985747
 O         2.017023         0.441878         1.335482
 H        -0.449682        -0.891733         0.316203
 H        -0.497080         0.976933         0.264819
 H        -0.320041        -0.123146        -1.258217
 H         2.263060         1.009871        -1.901774
 H         1.846905         1.951736        -0.587742
 H         4.130855         2.025254        -0.674894
 H         4.065413        -0.456732        -2.034865
 H         5.206201        -0.414445        -0.810804
 H         3.886945        -2.034165         0.468220
 H         4.089447         0.443698         1.751360
