19
Iteration:  2903
 C        -0.117769        -0.004867         0.109058
 C         1.380975         0.129244         0.017764
 C         2.193905         1.147635        -0.903563
 C         3.629906         0.966013        -0.459776
 C         4.327693        -0.370283        -0.821682
 C         3.416375        -1.180002         0.145632
 O         2.083984        -1.234948        -0.404151
 C         3.334609         0.191322         0.875107
 O         1.908480         0.345896         1.284672
 H        -0.537799        -0.515559         0.987515
 H        -0.546882         0.949544         0.246880
 H        -0.403363        -0.308954        -0.893079
 H         2.067934         0.939142        -1.936240
 H         2.022475         2.156075        -0.782640
 H         4.125153         1.925649        -0.426257
 H         4.360552        -0.583144        -1.904930
 H         5.356508        -0.362562        -0.360933
 H         3.751018        -2.066430         0.581722
 H         3.658545         0.364973         1.925757
