19
Iteration:  2034
 C        -0.064582        -0.116142        -0.071594
 C         1.438925         0.065274        -0.077717
 C         2.227637         1.144104        -0.885240
 C         3.679549         0.960923        -0.391723
 C         4.193788        -0.347115        -1.001356
 C         3.401042        -1.069998         0.216864
 O         1.995649        -1.215888        -0.228081
 C         3.316203         0.184256         0.987721
 O         1.994504         0.428682         1.290811
 H        -0.273092        -1.050605         0.500805
 H        -0.433499         0.736605         0.549309
 H        -0.388985         0.085115        -1.081767
 H         1.975554         1.060868        -1.994942
 H         1.752293         2.044374        -0.348632
 H         4.231027         1.865198        -0.512737
 H         3.936164        -0.731304        -2.038249
 H         5.255826        -0.663365        -0.862309
 H         3.592651        -2.117508         0.638498
 H         3.922717         0.340976         1.907004
