19
Iteration:  1419charge 0 multiplicity 1
 C        -0.053560         0.029717         0.019735
 C         1.490829         0.062018        -0.003054
 C         2.147349         1.168574        -0.932342
 C         3.589393         0.983556        -0.286080
 C         4.216545        -0.363576        -0.940546
 C         3.413851        -1.120614         0.135041
 O         2.085878        -1.240794        -0.312932
 C         3.317428         0.119264         0.954506
 O         1.944146         0.368307         1.235273
 H        -0.290696        -0.710932         0.957559
 H        -0.391279         1.085551         0.210830
 H        -0.556925        -0.348131        -0.882630
 H         2.125207         0.931293        -2.023257
 H         1.871095         2.201395        -0.789345
 H         4.147321         1.910556        -0.325627
 H         4.035335        -0.563193        -2.011146
 H         5.327671        -0.517642        -0.775972
 H         3.666317        -2.052536         0.727168
 H         3.846517         0.300873         1.868476
