19
Iteration:  4742
 C        -0.042744        -0.063671        -0.137461
 C         1.446359         0.105644         0.121343
 C         2.145083         1.164361        -0.878763
 C         3.575085         1.009257        -0.341351
 C         4.212766        -0.388916        -0.966247
 C         3.342859        -1.149353         0.120369
 O         2.029899        -1.232290        -0.285451
 C         3.389899         0.201142         0.933851
 O         1.991463         0.395547         1.369333
 H        -0.498341        -0.947451         0.238369
 H        -0.442314         0.855370         0.255866
 H        -0.002897        -0.179998        -1.225970
 H         1.939176         1.015291        -2.012449
 H         1.830569         2.143101        -0.555807
 H         4.370625         1.688237        -0.565813
 H         4.165604        -0.680409        -1.992561
 H         5.274980        -0.351378        -0.766398
 H         3.773359        -2.132896         0.396661
 H         4.133221         0.265644         1.758179
