19
Iteration:   407
 C        -0.081060         0.005764         0.024818
 C         1.450236         0.047990        -0.008941
 C         2.190284         1.146360        -0.833247
 C         3.583165         0.960088        -0.376568
 C         4.251480        -0.304820        -0.932397
 C         3.418543        -1.112673         0.137695
 O         2.027559        -1.321730        -0.362106
 C         3.335671         0.190122         1.003959
 O         1.961944         0.383737         1.246164
 H        -0.261171        -0.458432         0.926173
 H        -0.565634         1.102233         0.110467
 H        -0.404700        -0.484254        -0.858486
 H         2.129987         1.075748        -1.933740
 H         1.922663         2.205915        -0.610097
 H         4.202002         1.883620        -0.680722
 H         4.070775        -0.800318        -1.895587
 H         5.319949        -0.361535        -0.774000
 H         3.778110        -1.966234         0.570941
 H         3.916188         0.438095         1.897782
