19
Iteration:  3140charge 0 multiplicity 1
 C        -0.018516         0.006748        -0.009313
 C         1.461273         0.043667        -0.027919
 C         2.251331         1.172054        -0.883944
 C         3.712063         1.018764        -0.294968
 C         4.159978        -0.385543        -0.973854
 C         3.355117        -1.073099         0.079633
 O         2.040842        -1.249856        -0.316013
 C         3.317385         0.199794         1.009320
 O         1.923458         0.304671         1.298000
 H        -0.436743        -0.646283         0.881764
 H        -0.457007         1.020729        -0.113171
 H        -0.354354        -0.453450        -0.990124
 H         2.114959         1.058807        -1.948770
 H         1.889020         2.127564        -0.682071
 H         4.153633         2.037026        -0.332446
 H         3.714080        -0.695057        -1.938863
 H         5.287558        -0.509102        -0.970149
 H         3.791036        -2.011410         0.576911
 H         3.729891         0.229692         2.101785
