19
Iteration:  4017
 C        -0.062491         0.110741         0.093925
 C         1.426118         0.052944         0.021202
 C         2.146590         1.114638        -0.895057
 C         3.625751         0.985502        -0.433597
 C         4.289917        -0.331108        -0.849771
 C         3.467724        -1.156390         0.098937
 O         2.058582        -1.310397        -0.402028
 C         3.324382         0.191222         0.979403
 O         1.888189         0.336468         1.282380
 H        -0.300951        -0.766418         0.661958
 H        -0.354529         1.135505         0.356793
 H        -0.435522         0.037063        -0.975989
 H         1.913935         1.014706        -1.937938
 H         1.690147         1.986950        -0.700879
 H         4.070407         2.031560        -0.473236
 H         4.159080        -0.626964        -1.896891
 H         5.441647        -0.249526        -0.723064
 H         3.739085        -2.009763         0.682778
 H         4.032956         0.238469         1.821328
