19
Iteration:  2211
 C        -0.069126         0.109838         0.070984
 C         1.388852         0.040193        -0.109353
 C         2.180948         0.957972        -1.018754
 C         3.629860         0.958922        -0.339347
 C         4.330640        -0.266079        -0.910040
 C         3.386178        -1.109871         0.106836
 O         2.021708        -1.217136        -0.344802
 C         3.360674         0.202175         1.033692
 O         1.928825         0.325954         1.357398
 H        -0.246131        -0.746247         0.715649
 H        -0.196673         1.100954         0.513077
 H        -0.649697        -0.154301        -0.844783
 H         2.063692         0.749988        -2.076326
 H         1.688195         1.992009        -0.904654
 H         4.091883         1.869955        -0.402689
 H         4.132401        -0.576085        -1.993134
 H         5.379682        -0.235425        -0.610699
 H         3.740493        -2.054660         0.609176
 H         4.011424         0.418457         1.867199
