19
Iteration:  3034charge 0 multiplicity 1
 C        -0.068809         0.100936         0.102394
 C         1.423048        -0.011197        -0.102226
 C         2.244058         1.081939        -0.960244
 C         3.600714         0.950797        -0.340559
 C         4.327520        -0.296568        -0.815225
 C         3.379157        -1.101823         0.046399
 O         1.988885        -1.287439        -0.356714
 C         3.306616         0.183373         1.009546
 O         1.958315         0.359920         1.274178
 H        -0.313782        -0.866974         0.609841
 H        -0.305630         0.993259         0.633653
 H        -0.563989         0.032754        -0.873485
 H         2.124604         0.796507        -2.023698
 H         1.800093         2.200273        -0.757187
 H         4.021559         1.931827        -0.439716
 H         4.240272        -0.348220        -1.946415
 H         5.426756        -0.405492        -0.532946
 H         3.597384        -1.973569         0.534412
 H         3.989958         0.410575         1.914512
