19
Iteration:   982
 C        -0.050215        -0.074592         0.115351
 C         1.457606         0.149109        -0.028102
 C         2.227227         1.146079        -0.996138
 C         3.637861         0.895349        -0.440400
 C         4.317365        -0.391743        -0.888542
 C         3.402374        -1.125202         0.162023
 O         2.034369        -1.160047        -0.321445
 C         3.252727         0.227195         1.044001
 O         1.887002         0.394536         1.208046
 H        -0.177834        -0.622032         1.026062
 H        -0.794519         0.769912         0.228769
 H        -0.445933        -0.707334        -0.720751
 H         2.029698         0.970375        -2.056005
 H         1.912481         2.245455        -0.754529
 H         4.289324         1.691174        -0.436816
 H         4.178097        -0.611348        -1.986366
 H         5.360227        -0.360849        -0.633011
 H         3.926164        -2.079370         0.589486
 H         3.760550        -0.128303         2.017088
