19
Iteration:  2329charge 0 multiplicity 1
 C        -0.093599         0.054791        -0.003796
 C         1.437809         0.115831         0.014498
 C         2.144899         1.053862        -0.910661
 C         3.626252         0.971842        -0.364489
 C         4.308074        -0.245699        -0.913149
 C         3.401376        -1.107085         0.031568
 O         2.011538        -1.331362        -0.267639
 C         3.309836         0.177947         0.993057
 O         2.006449         0.362922         1.297925
 H        -0.512444        -0.527184         0.854366
 H        -0.462442         1.126992         0.003146
 H        -0.463216        -0.568004        -0.893740
 H         2.113821         0.750367        -1.925628
 H         1.864121         2.087645        -0.965178
 H         4.219273         1.862815        -0.235399
 H         4.142060        -0.530530        -1.977552
 H         5.312884        -0.329524        -0.606262
 H         3.663835        -2.191687         0.320407
 H         3.941059         0.380812         1.862809
