19
Iteration:   502charge 0 multiplicity 1
 C        -0.065638        -0.117929        -0.097256
 C         1.473242         0.113561         0.028331
 C         2.192863         1.198192        -0.871684
 C         3.629296         0.935273        -0.461907
 C         4.128809        -0.441422        -0.918788
 C         3.384426        -1.144828         0.121275
 O         2.059455        -1.233489        -0.315313
 C         3.365950         0.310867         1.023622
 O         1.995536         0.391628         1.371615
 H        -0.303733        -1.040450         0.448305
 H        -0.648275         0.658011         0.472451
 H        -0.371511        -0.114571        -1.114919
 H         2.112143         1.144068        -1.937462
 H         1.846254         2.210556        -0.572851
 H         4.214488         1.817384        -0.478073
 H         3.790376        -0.664447        -1.961646
 H         5.225122        -0.516400        -0.892806
 H         3.603487        -2.193304         0.512331
 H         4.069466         0.750828         1.827952
