19
Iteration:  3296charge 0 multiplicity 1
 C        -0.111242         0.115313         0.044448
 C         1.431958         0.062327        -0.002510
 C         2.186572         1.104656        -0.922093
 C         3.595000         0.948462        -0.327887
 C         4.299319        -0.309555        -0.844363
 C         3.477472        -1.103581         0.104494
 O         2.040236        -1.284271        -0.365543
 C         3.291953         0.189901         0.910161
 O         1.958462         0.294442         1.279769
 H        -0.689185        -0.399848         0.828636
 H        -0.391070         1.224154         0.247579
 H        -0.447075        -0.315120        -0.960084
 H         2.050437         0.744916        -1.903999
 H         1.579187         1.984454        -0.755910
 H         4.139235         1.876479        -0.368833
 H         4.141871        -0.580466        -1.865261
 H         5.454044        -0.335839        -0.618502
 H         3.865486        -1.940937         0.601888
 H         3.988652         0.309839         1.700734
