19
Iteration:  1628
 C        -0.077092         0.073101        -0.076747
 C         1.475542         0.049292         0.035053
 C         2.109349         1.051190        -0.938992
 C         3.637476         0.967607        -0.428582
 C         4.271307        -0.322107        -0.926406
 C         3.431527        -1.092323         0.101463
 O         1.983792        -1.217577        -0.230460
 C         3.360188         0.213638         1.009749
 O         2.000029         0.308858         1.337892
 H        -0.608335        -0.644200         0.503499
 H        -0.566513         1.078888         0.225990
 H        -0.592090        -0.051923        -1.076682
 H         2.129604         0.687311        -2.029850
 H         1.633981         2.038580        -0.880094
 H         4.257871         1.805356        -0.471765
 H         4.102974        -0.579024        -1.950715
 H         5.372260        -0.429527        -0.728104
 H         3.733056        -2.047201         0.558476
 H         4.020866         0.221736         1.913535
