19
Iteration:    96
 C        -0.090539         0.063749        -0.206331
 C         1.451763         0.009595         0.010277
 C         2.105903         1.002355        -0.943038
 C         3.542375         0.952683        -0.404845
 C         4.191305        -0.338971        -1.047901
 C         3.448027        -1.127741         0.176885
 O         2.055311        -1.274901        -0.114469
 C         3.362136         0.259322         0.963612
 O         2.070023         0.430015         1.437499
 H        -0.646697        -0.651272         0.370979
 H        -0.515694         1.119486         0.029029
 H        -0.284225        -0.191499        -1.250740
 H         2.028561         0.606585        -1.990544
 H         1.649510         1.995279        -0.770841
 H         4.153469         1.896509        -0.405447
 H         3.826342        -0.578708        -2.030324
 H         5.308417        -0.254129        -0.912277
 H         3.969158        -1.984661         0.640255
 H         4.099890         0.532044         1.665433
