19
Iteration:  2588charge 0 multiplicity 1
 C        -0.035145         0.029105        -0.086981
 C         1.491766         0.123028         0.052772
 C         2.147239         1.062140        -0.925313
 C         3.592230         0.974667        -0.335544
 C         4.211072        -0.291238        -0.944468
 C         3.416988        -1.125722         0.081135
 O         2.009607        -1.304825        -0.168569
 C         3.331794         0.202687         0.866293
 O         1.981514         0.400392         1.322408
 H        -0.400544        -0.723834         0.555947
 H        -0.516938         0.961647         0.143917
 H        -0.369392        -0.428070        -1.024838
 H         2.193457         0.572441        -1.954873
 H         1.790847         2.148609        -0.826113
 H         4.251348         1.892103        -0.360264
 H         4.133689        -0.469533        -2.041676
 H         5.216328        -0.525076        -0.581641
 H         3.825538        -2.103856         0.403324
 H         3.867284         0.279208         1.819924
