19
Iteration:   446
 C        -0.058794         0.105882         0.042645
 C         1.430688         0.110122         0.039204
 C         2.173350         1.016127        -0.961516
 C         3.565984         1.010151        -0.435638
 C         4.317534        -0.261308        -0.845913
 C         3.394762        -1.077022         0.080094
 O         1.950237        -1.282997        -0.344591
 C         3.388094         0.178468         0.974986
 O         1.998917         0.263960         1.318214
 H        -0.558307        -0.439086         0.946690
 H        -0.468350         1.073609         0.088257
 H        -0.411589        -0.446569        -0.862202
 H         2.152435         0.513708        -1.918140
 H         1.686024         1.987849        -1.060940
 H         4.048163         1.921638        -0.380133
 H         4.316218        -0.475800        -1.938995
 H         5.364786        -0.085552        -0.484932
 H         3.736215        -2.120663         0.527333
 H         4.128772         0.209657         1.861408
