19
Iteration:  1558
 C        -0.070361        -0.049702        -0.003304
 C         1.358559         0.110046         0.024507
 C         2.183385         1.127914        -0.895622
 C         3.696424         0.931177        -0.402928
 C         4.309494        -0.372779        -0.885638
 C         3.300624        -1.102737         0.153343
 O         1.992555        -1.216839        -0.402590
 C         3.371547         0.227269         0.953805
 O         1.999075         0.375716         1.363080
 H        -0.408313        -0.742541         0.856025
 H        -0.579082         0.853372        -0.125904
 H        -0.256796        -0.557672        -0.925031
 H         1.895007         0.881962        -1.948067
 H         1.890432         2.273064        -0.610025
 H         4.375329         1.827826        -0.577813
 H         4.123686        -0.810872        -1.949625
 H         5.394542        -0.309902        -0.680866
 H         3.637771        -2.054174         0.529702
 H         3.985707         0.470675         1.819040
