19
Iteration:  3614
 C        -0.056115        -0.009521         0.031979
 C         1.412217         0.125828         0.052968
 C         2.178428         1.040083        -0.938419
 C         3.598716         0.954348        -0.373191
 C         4.299244        -0.376824        -0.885537
 C         3.367817        -1.149409         0.067932
 O         2.003472        -1.218719        -0.289172
 C         3.367359         0.205728         0.944780
 O         1.962868         0.428363         1.268246
 H        -0.282270        -1.055584         0.458323
 H        -0.748195         0.759270         0.330954
 H        -0.269843        -0.068006        -1.054963
 H         2.049836         0.903837        -1.981648
 H         1.740183         1.991693        -0.816835
 H         4.086563         1.966664        -0.300761
 H         4.420263        -0.533093        -1.934266
 H         5.303215        -0.374703        -0.378930
 H         3.840436        -1.980177         0.535152
 H         4.105126         0.380665         1.755568
