19
Iteration:  3248
 C        -0.080991        -0.055764        -0.133515
 C         1.464408         0.123351         0.027641
 C         2.258549         1.221322        -0.876446
 C         3.650713         0.956416        -0.365971
 C         4.132358        -0.360419        -0.966930
 C         3.314714        -1.120080         0.140261
 O         2.028075        -1.290778        -0.249718
 C         3.395699         0.218388         0.960159
 O         1.988029         0.367675         1.328615
 H        -0.438460        -1.080392         0.192121
 H        -0.707043         0.531987         0.470075
 H        -0.229082        -0.145180        -1.189447
 H         2.225218         1.135896        -1.981558
 H         1.901624         2.087710        -0.388338
 H         4.113843         1.965438        -0.214461
 H         3.869915        -0.476923        -2.099122
 H         5.218519        -0.606467        -0.803498
 H         3.927051        -2.064276         0.475047
 H         3.957699         0.450346         1.941295
