19
Iteration:  4441
 C        -0.069941        -0.009337        -0.025440
 C         1.473324         0.070604        -0.039173
 C         2.212092         1.096383        -0.904142
 C         3.648815         0.979437        -0.348510
 C         4.212393        -0.369811        -0.929884
 C         3.407789        -1.105269         0.173935
 O         2.014052        -1.227204        -0.340436
 C         3.345608         0.212187         1.015386
 O         1.941631         0.362321         1.317920
 H        -0.445561        -0.661681         0.767378
 H        -0.529490         0.978084         0.015621
 H        -0.608716        -0.406392        -0.833335
 H         2.278220         1.026312        -1.940998
 H         1.843799         2.094461        -0.672496
 H         4.219932         1.876783        -0.434517
 H         3.871163        -0.672820        -1.972671
 H         5.279445        -0.428937        -1.043450
 H         3.771331        -2.082864         0.352571
 H         3.990604         0.450134         1.903275
