19
Iteration:  1510charge 0 multiplicity 1
 C        -0.059799         0.128569         0.061134
 C         1.411197        -0.014492        -0.008947
 C         2.256055         1.069606        -0.963315
 C         3.619204         1.031658        -0.345820
 C         4.294830        -0.276664        -0.914366
 C         3.390588        -1.154110         0.129070
 O         2.002565        -1.317077        -0.331487
 C         3.316486         0.225508         0.990076
 O         1.945384         0.339860         1.246387
 H        -0.359216        -0.714300         0.657671
 H        -0.338981         1.137853         0.549714
 H        -0.647955        -0.025038        -0.917595
 H         2.082500         0.757932        -1.975912
 H         1.654761         1.898589        -0.829163
 H         4.188886         1.985314        -0.413567
 H         4.087382        -0.519858        -1.974831
 H         5.380523        -0.512384        -0.793097
 H         3.914691        -1.950156         0.773048
 H         3.849025         0.279058         1.991080
