19
Iteration:  1531
 C        -0.038208         0.066331         0.083587
 C         1.382675         0.072463        -0.064958
 C         2.160935         1.087800        -0.975806
 C         3.588854         0.919946        -0.309382
 C         4.299356        -0.336817        -0.858509
 C         3.408658        -1.105221         0.047464
 O         2.062305        -1.231037        -0.298852
 C         3.306539         0.150854         0.940758
 O         1.954409         0.380515         1.282869
 H        -0.419274        -0.600776         0.847075
 H        -0.415587         1.129523         0.325103
 H        -0.648137        -0.298024        -0.797961
 H         2.086679         0.791930        -2.027995
 H         1.840395         2.061217        -0.901247
 H         4.254100         1.757663        -0.324503
 H         4.418873        -0.749890        -1.824972
 H         5.318782        -0.213396        -0.442585
 H         3.837444        -2.132818         0.285771
 H         3.873787         0.424163         1.840605
