19
Iteration:  3233charge 0 multiplicity 1
 C        -0.042263        -0.119303        -0.082787
 C         1.443335         0.114075        -0.043418
 C         2.223647         1.220545        -0.782100
 C         3.699545         0.958702        -0.329057
 C         4.159257        -0.374197        -1.009929
 C         3.434082        -1.174841         0.084443
 O         2.021910        -1.289402        -0.261940
 C         3.296153         0.215472         1.064404
 O         1.928255         0.463494         1.271358
 H        -0.171343        -1.076915         0.324309
 H        -0.485295         0.679881         0.558155
 H        -0.495860         0.066530        -1.060038
 H         2.059432         1.143700        -1.906396
 H         1.905426         2.340614        -0.646785
 H         4.543136         1.642738        -0.463007
 H         3.811864        -0.605375        -2.009848
 H         5.213526        -0.430705        -1.085217
 H         3.657141        -2.112268         0.514660
 H         3.914821         0.308296         1.892614
