19
Iteration:   633charge 0 multiplicity 1
 C         0.024014        -0.098825        -0.103056
 C         1.511838         0.073501        -0.052556
 C         2.197114         1.211652        -0.886548
 C         3.640075         1.010517        -0.409319
 C         4.124240        -0.381650        -0.984579
 C         3.342938        -1.123284         0.149910
 O         1.990031        -1.260227        -0.203978
 C         3.345707         0.246824         1.002997
 O         1.987018         0.384854         1.333894
 H        -0.290030        -0.633864         0.783881
 H        -0.521520         0.931778        -0.137763
 H        -0.249438        -0.723349        -0.897109
 H         2.164190         0.999782        -1.916839
 H         1.791950         2.236163        -0.716111
 H         4.230442         1.874591        -0.318922
 H         3.913424        -0.804752        -2.017574
 H         5.189409        -0.471283        -0.751244
 H         3.565176        -2.191283         0.544865
 H         4.064135         0.352734         1.833571
