19
Iteration:  1590charge 0 multiplicity 1
 C        -0.017295        -0.056066        -0.119304
 C         1.436838         0.092736        -0.041142
 C         2.150794         1.193167        -0.857280
 C         3.679635         0.914714        -0.363131
 C         4.221581        -0.331161        -1.033696
 C         3.381957        -1.162440         0.165801
 O         1.997338        -1.232660        -0.192918
 C         3.359582         0.163018         1.035470
 O         1.959561         0.432227         1.271996
 H        -0.147778        -0.625150         0.837451
 H        -0.337837         0.923593        -0.077047
 H        -0.097631        -0.548777        -1.046995
 H         1.905299         1.161538        -1.914030
 H         1.609645         2.126172        -0.377613
 H         4.376170         1.831676        -0.530276
 H         3.604418        -0.777583        -1.914722
 H         5.310853        -0.400823        -1.134243
 H         3.677452        -2.136671         0.594523
 H         3.953268         0.313694         1.944086
