19
Iteration:    84
 C         0.020604         0.025542        -0.154646
 C         1.471591         0.009883         0.000907
 C         2.154457         0.978858        -0.948646
 C         3.544775         1.004573        -0.467572
 C         4.103908        -0.337646        -0.913017
 C         3.450787        -1.026540         0.163484
 O         2.002776        -1.228758        -0.099509
 C         3.424596         0.295648         0.933843
 O         2.000539         0.294988         1.358644
 H        -0.383941        -0.511319         0.656655
 H        -0.223371         1.204385         0.023900
 H        -0.367280        -0.239610        -1.113189
 H         2.026545         0.824942        -2.067203
 H         1.618215         1.952735        -0.854935
 H         4.047180         2.035173        -0.527261
 H         3.948095        -0.637869        -1.953347
 H         5.230716        -0.605636        -0.865034
 H         3.611209        -2.117266         0.557707
 H         4.114638         0.453899         1.719672
