19
Iteration:  4533charge 0 multiplicity 1
 C        -0.063742        -0.026150         0.087611
 C         1.440384         0.040680        -0.140581
 C         2.200235         1.097024        -0.873378
 C         3.628763         0.954874        -0.364218
 C         4.301641        -0.386604        -0.855072
 C         3.326851        -1.097690         0.092549
 O         2.022479        -1.246136        -0.398481
 C         3.305821         0.286715         1.015025
 O         1.966590         0.393517         1.304312
 H        -0.419193        -0.828396         0.700466
 H        -0.299477         0.881027         0.589185
 H        -0.578841        -0.261646        -0.811912
 H         2.036627         1.024375        -1.941013
 H         1.754686         2.089777        -0.826931
 H         4.228518         1.914855        -0.367819
 H         4.310240        -0.675328        -1.980029
 H         5.422737        -0.545819        -0.667823
 H         3.714130        -1.981945         0.583492
 H         4.045314         0.425180         1.765599
