19
Iteration:  3550
 C        -0.081615         0.050400        -0.055684
 C         1.453595         0.052517        -0.001698
 C         2.143892         1.126791        -0.918019
 C         3.620829         1.028060        -0.482879
 C         4.209557        -0.380638        -0.905021
 C         3.477619        -1.116787         0.162298
 O         2.030163        -1.284334        -0.287703
 C         3.397677         0.223761         0.977576
 O         1.920778         0.339423         1.371747
 H        -0.552412        -0.781570         0.619240
 H        -0.467061         1.093563         0.070096
 H        -0.348159        -0.300241        -1.125309
 H         2.114108         0.983149        -1.996566
 H         1.757917         2.029072        -0.559408
 H         4.303720         1.892842        -0.462827
 H         3.983760        -0.663452        -1.995003
 H         5.350558        -0.449199        -0.608582
 H         3.664821        -2.061754         0.635123
 H         4.040349         0.391289         1.846449
