19
Iteration:   321charge 0 multiplicity 1
 C        -0.020899         0.152977         0.062205
 C         1.451950         0.046577        -0.039630
 C         2.153476         1.042815        -0.985781
 C         3.597244         0.951515        -0.405420
 C         4.259632        -0.289352        -0.950008
 C         3.434599        -1.043555         0.107384
 O         2.100607        -1.327597        -0.255619
 C         3.281769         0.193113         1.004019
 O         1.886316         0.297580         1.279604
 H        -0.255788        -0.714951         0.602190
 H        -0.354632         1.079383         0.755496
 H        -0.696858         0.107462        -0.768654
 H         2.098286         0.834696        -2.076932
 H         1.654059         2.020267        -0.756726
 H         4.302467         1.875075        -0.578012
 H         4.282342        -0.733839        -1.964780
 H         5.279005        -0.218994        -0.485782
 H         3.832956        -1.948236         0.587323
 H         3.894679         0.349797         1.869430
