19
Iteration:  4895charge 0 multiplicity 1
 C        -0.070259        -0.054779        -0.141906
 C         1.413198         0.068882        -0.039057
 C         2.179293         1.161253        -0.864012
 C         3.574800         0.931802        -0.366430
 C         4.207458        -0.342226        -0.953431
 C         3.389170        -1.096090         0.131273
 O         2.009527        -1.226447        -0.265871
 C         3.365754         0.215899         0.989159
 O         2.052072         0.344794         1.348159
 H        -0.378948        -0.779417         0.651931
 H        -0.506627         0.940876         0.174047
 H        -0.380377        -0.170265        -1.163604
 H         2.198556         1.216337        -2.000095
 H         1.881298         2.112306        -0.468023
 H         4.241185         1.822296        -0.214383
 H         3.984484        -0.707986        -1.982709
 H         5.200555        -0.498816        -0.716411
 H         3.787568        -2.034448         0.544198
 H         3.995479         0.412704         1.876095
