19
Iteration:  1049
 C        -0.016427         0.008832        -0.138571
 C         1.437286         0.053615        -0.036710
 C         2.148670         1.144281        -0.864632
 C         3.649863         1.013252        -0.385191
 C         4.189678        -0.398615        -0.973227
 C         3.515523        -1.105275         0.122276
 O         1.972334        -1.267572        -0.175540
 C         3.337472         0.210531         0.953250
 O         1.963100         0.354668         1.380858
 H        -0.503295        -0.860540         0.436612
 H        -0.348858         0.968357         0.112695
 H        -0.261748        -0.042956        -1.229882
 H         2.064568         0.838094        -1.999154
 H         1.649630         2.115610        -0.804232
 H         4.162113         1.902742        -0.414583
 H         3.985635        -0.540754        -2.024535
 H         5.282643        -0.289457        -0.886327
 H         3.608288        -2.131116         0.609546
 H         3.972028         0.350617         1.882233
