19
Iteration:  3288charge 0 multiplicity 1
 C        -0.079272         0.141139        -0.005123
 C         1.390086         0.043826         0.076080
 C         2.149770         1.046182        -0.932415
 C         3.567711         0.920171        -0.364528
 C         4.277391        -0.303168        -0.892012
 C         3.481745        -1.111235         0.063801
 O         2.093999        -1.272246        -0.365411
 C         3.326216         0.191332         0.988545
 O         1.935543         0.346539         1.331328
 H        -0.549913        -0.632005         0.590629
 H        -0.448523         1.204059         0.052744
 H        -0.308446        -0.163442        -1.047473
 H         1.952222         0.797755        -2.073037
 H         1.810632         2.161147        -0.551681
 H         4.200860         1.832400        -0.311379
 H         4.119317        -0.653800        -1.922706
 H         5.249787        -0.271331        -0.464528
 H         3.752110        -2.092496         0.434825
 H         4.107740         0.312161         1.710850
