19
Iteration:   997charge 0 multiplicity 1
 C        -0.040725        -0.022787         0.053055
 C         1.446588         0.069728        -0.116433
 C         2.192923         1.099807        -0.955551
 C         3.622549         0.938643        -0.350001
 C         4.250525        -0.369287        -0.890273
 C         3.392510        -1.097935         0.131662
 O         2.049360        -1.193586        -0.315346
 C         3.309970         0.206840         1.000423
 O         1.931895         0.369972         1.305746
 H        -0.184697        -0.585056         1.085206
 H        -0.372074         0.985306         0.010195
 H        -0.578134        -0.567697        -0.752243
 H         2.184051         0.891591        -2.082629
 H         1.837824         2.077215        -0.836721
 H         4.187092         1.902160        -0.401800
 H         4.137652        -0.654010        -1.922947
 H         5.325791        -0.515244        -0.598089
 H         3.491894        -2.098489         0.516333
 H         3.899638         0.668352         1.744728
