19
Iteration:  2066
 C        -0.063527        -0.056380         0.089809
 C         1.441585         0.134101         0.008298
 C         2.177972         1.070477        -1.003977
 C         3.647577         0.955552        -0.379429
 C         4.306728        -0.356359        -0.889572
 C         3.427138        -1.145663         0.093669
 O         2.026546        -1.167254        -0.348780
 C         3.262588         0.166668         1.007395
 O         1.976316         0.416878         1.303466
 H        -0.546087        -1.020377         0.490859
 H        -0.552987         0.777742         0.640102
 H        -0.623942         0.031949        -0.864416
 H         2.010522         0.674635        -2.055575
 H         1.809108         2.149382        -1.010073
 H         4.084152         1.944431        -0.415883
 H         4.298277        -0.728763        -1.937132
 H         5.267582        -0.469420        -0.335319
 H         3.574808        -2.242413         0.371974
 H         3.958121         0.498989         1.809125
