19
Iteration:  1258
 C        -0.120138         0.082783         0.071681
 C         1.450801         0.063641        -0.030821
 C         2.175956         1.068594        -0.989093
 C         3.654478         0.981945        -0.339085
 C         4.276184        -0.275200        -0.859992
 C         3.474584        -1.131527         0.058170
 O         2.073983        -1.277966        -0.292629
 C         3.279911         0.159279         0.978224
 O         1.942510         0.345670         1.251467
 H        -0.717256        -0.564101         0.707248
 H        -0.192385         1.130386         0.561737
 H        -0.725090         0.263490        -0.800376
 H         1.863587         0.700432        -2.125984
 H         1.723490         2.094391        -0.752655
 H         4.039188         1.972900        -0.338321
 H         4.216628        -0.730731        -1.876020
 H         5.402405        -0.411568        -0.536716
 H         3.742979        -2.322364         0.321519
 H         3.808382         0.212767         1.909524
