19
Iteration:    18
 C         0.036821        -0.123439         0.130837
 C         1.463335         0.194389         0.020041
 C         2.208650         1.118957        -1.025013
 C         3.614326         0.947313        -0.507151
 C         4.258346        -0.410147        -0.819641
 C         3.273168        -1.106666         0.184564
 O         1.983813        -1.273783        -0.393786
 C         3.322504         0.314510         0.875293
 O         1.927647         0.405538         1.396252
 H        -0.022833        -0.746413         1.013965
 H        -0.668341         0.800607         0.225944
 H        -0.290897        -0.711919        -0.721158
 H         2.030013         0.768500        -2.078649
 H         1.970108         2.207874        -1.012634
 H         4.246088         1.881513        -0.619205
 H         4.392907        -0.814227        -1.846757
 H         5.362868        -0.460119        -0.503532
 H         3.871362        -1.951433         0.671452
 H         4.112150         0.528470         1.607328
