19
Iteration:  4474charge 0 multiplicity 1
 C        -0.043239        -0.003878        -0.168569
 C         1.414559         0.078725         0.084821
 C         2.218507         1.171239        -0.855958
 C         3.571305         0.977358        -0.485749
 C         4.251778        -0.334716        -0.948569
 C         3.453153        -1.081798         0.137171
 O         1.963418        -1.318134        -0.262258
 C         3.367798         0.147775         0.975278
 O         1.973886         0.395633         1.405542
 H        -0.618008        -0.583744         0.584645
 H        -0.330659         1.062872        -0.196643
 H         0.001167        -0.300236        -1.192972
 H         1.925541         1.069506        -1.854870
 H         1.691941         1.936150        -0.340245
 H         4.074390         1.909338        -0.584208
 H         4.011787        -0.728511        -1.973851
 H         5.258553        -0.358027        -0.633405
 H         3.668500        -2.076796         0.428669
 H         4.234211         0.197725         1.700332
