19
Iteration:  2647charge 0 multiplicity 1
 C        -0.045902        -0.080058         0.047468
 C         1.479982         0.133974        -0.001937
 C         2.093302         1.132407        -0.992348
 C         3.558862         0.937803        -0.489561
 C         4.329283        -0.422688        -0.857222
 C         3.421318        -1.153595         0.208704
 O         2.052242        -1.154613        -0.361769
 C         3.308041         0.175941         0.980074
 O         1.940420         0.413429         1.327915
 H        -0.146949        -1.024057         0.607820
 H        -0.570961         0.759030         0.584577
 H        -0.540360         0.150404        -0.880298
 H         2.036057         1.079394        -2.046858
 H         1.913777         2.189040        -0.890655
 H         4.199565         1.787429        -0.478129
 H         4.207880        -0.804660        -1.955597
 H         5.428391        -0.282288        -0.614066
 H         3.608920        -2.169873         0.693050
 H         3.962623         0.317443         1.861487
