19
Iteration:  4066charge 0 multiplicity 1
 C        -0.006455        -0.091033        -0.119992
 C         1.435117         0.153900         0.108856
 C         2.223642         1.173340        -0.819590
 C         3.726296         0.907886        -0.377757
 C         4.150152        -0.326790        -1.022399
 C         3.310684        -1.095467         0.103509
 O         2.014068        -1.264294        -0.294547
 C         3.310511         0.221427         1.022349
 O         1.999417         0.383545         1.326322
 H        -0.111106        -0.947423         0.608805
 H        -0.602023         0.808429        -0.095287
 H        -0.220571        -0.527292        -1.060218
 H         2.034241         0.905176        -1.923185
 H         1.649234         2.268201        -0.736090
 H         4.145680         1.875283        -0.300364
 H         3.817660        -0.439741        -2.104586
 H         5.217977        -0.559037        -0.937187
 H         3.800332        -2.064630         0.498537
 H         3.976682         0.282918         1.891577
