19
Iteration:  4335charge 0 multiplicity 1
 C        -0.060809        -0.020097        -0.106075
 C         1.502066         0.001316        -0.051589
 C         2.234054         1.153238        -0.837505
 C         3.660211         1.044582        -0.308788
 C         4.166918        -0.381213        -0.952162
 C         3.372477        -1.097000         0.078872
 O         2.008220        -1.323782        -0.185999
 C         3.313417         0.232762         0.928791
 O         1.986850         0.422066         1.302423
 H        -0.608449        -0.797489         0.552271
 H        -0.539553         0.933993         0.231755
 H        -0.296844        -0.165326        -1.167825
 H         2.145658         0.921470        -1.927870
 H         1.697275         2.164570        -0.567561
 H         4.387444         1.878406        -0.353010
 H         3.707321        -0.434739        -1.890331
 H         5.212095        -0.586539        -0.915638
 H         3.819142        -2.029179         0.449775
 H         4.018896         0.164824         1.795911
