19
Iteration:  2932charge 0 multiplicity 1
 C        -0.065257         0.056007        -0.064525
 C         1.454771         0.038746        -0.053624
 C         2.105146         0.996398        -0.870649
 C         3.585214         0.984976        -0.361307
 C         4.257699        -0.342611        -0.916960
 C         3.470112        -1.076017         0.082647
 O         1.971897        -1.203220        -0.335537
 C         3.374695         0.173173         0.990397
 O         2.007370         0.360835         1.393226
 H        -0.420186        -0.409217         0.862209
 H        -0.312218         1.189375        -0.166819
 H        -0.531100        -0.384047        -0.967537
 H         2.134275         0.666731        -1.962104
 H         1.800240         2.180742        -0.877589
 H         4.049009         1.991261        -0.353967
 H         4.262552        -0.570102        -1.946902
 H         5.303956        -0.462912        -0.420088
 H         3.826180        -2.103428         0.366739
 H         3.752079         0.236170         1.957197
