19
Iteration:  1893charge 0 multiplicity 1
 C        -0.018293        -0.032936        -0.135148
 C         1.459587         0.018606         0.009845
 C         2.130875         1.053244        -0.869973
 C         3.582535         0.996657        -0.391635
 C         4.253941        -0.390569        -0.962971
 C         3.364112        -1.090315         0.111183
 O         2.006758        -1.240503        -0.203338
 C         3.337528         0.273603         0.981499
 O         2.010379         0.435220         1.356033
 H        -0.458872        -0.871813         0.497439
 H        -0.538588         0.857690         0.190161
 H        -0.355951        -0.104765        -1.131926
 H         2.028188         0.809138        -2.015219
 H         1.712543         2.124103        -0.682238
 H         4.278827         1.760854        -0.525103
 H         4.175944        -0.641138        -2.072131
 H         5.354233        -0.563378        -0.818387
 H         3.836690        -2.031409         0.506415
 H         4.089721         0.434735         1.786916
