19
Iteration:  1304charge 0 multiplicity 1
 C        -0.068878        -0.040974        -0.133240
 C         1.396939         0.044734        -0.002932
 C         2.174431         1.176949        -0.806885
 C         3.613676         0.936935        -0.413795
 C         4.174530        -0.366369        -0.975115
 C         3.384580        -1.126835         0.108609
 O         2.069625        -1.185890        -0.252702
 C         3.365403         0.133024         1.035265
 O         1.999242         0.426634         1.332976
 H        -0.317713        -0.965352         0.289203
 H        -0.641914         0.807178         0.443179
 H        -0.378729        -0.084492        -1.191397
 H         2.056808         0.987244        -1.950578
 H         1.766580         2.261147        -0.593913
 H         4.304029         1.817875        -0.538921
 H         4.117790        -0.561935        -2.092708
 H         5.271922        -0.457031        -0.730864
 H         3.771265        -2.112625         0.639172
 H         4.180973         0.195388         1.788824
