19
Iteration:  4826
 C        -0.062951         0.013636         0.037224
 C         1.435703         0.054922         0.051320
 C         2.167462         1.085038        -0.925292
 C         3.618718         0.961836        -0.383219
 C         4.394310        -0.348612        -0.917467
 C         3.393235        -1.066435         0.057490
 O         2.000989        -1.236923        -0.341070
 C         3.259767         0.170720         0.979290
 O         1.955119         0.346694         1.329418
 H        -0.572344        -0.595078         0.770908
 H        -0.486840         1.050513         0.030830
 H        -0.419271        -0.132718        -1.041813
 H         1.842089         0.795281        -1.900790
 H         1.944376         2.151917        -0.722418
 H         4.112374         1.951775        -0.317730
 H         4.383138        -0.588536        -2.085697
 H         5.398150        -0.346693        -0.380161
 H         3.745851        -2.064362         0.356717
 H         4.000496         0.390117         1.769398
