19
Iteration:  3715charge 0 multiplicity 1
 C        -0.059221        -0.055553         0.102725
 C         1.339363         0.065835        -0.017566
 C         2.201353         1.187255        -1.000666
 C         3.601266         0.962236        -0.432717
 C         4.391700        -0.398535        -0.923090
 C         3.385077        -1.142246         0.155363
 O         2.024398        -1.154580        -0.379914
 C         3.352703         0.210860         0.997547
 O         1.908400         0.380615         1.345305
 H        -0.212051        -0.810082         0.892752
 H        -0.671287         0.924807         0.160232
 H        -0.337134        -0.708467        -0.861409
 H         2.156910         0.849573        -2.025436
 H         1.813574         2.157289        -0.838028
 H         4.234906         1.833620        -0.289594
 H         4.310078        -0.782478        -2.007491
 H         5.430533        -0.468645        -0.484934
 H         3.602627        -2.129270         0.607422
 H         3.918431         0.391942         1.901657
