19
Iteration:  1327charge 0 multiplicity 1
 C        -0.025787        -0.110218        -0.090694
 C         1.401729         0.095592         0.017251
 C         2.228757         1.240268        -0.828585
 C         3.662879         0.986085        -0.379597
 C         4.203208        -0.442223        -0.955768
 C         3.427500        -1.151925         0.131936
 O         1.966848        -1.224223        -0.276721
 C         3.328676         0.232518         0.977130
 O         1.975396         0.366450         1.272983
 H        -0.268639        -0.933562         0.600658
 H        -0.564270         0.828627         0.302194
 H        -0.337376        -0.354135        -1.135154
 H         2.063112         1.366382        -1.919752
 H         1.850510         2.242343        -0.317131
 H         4.353676         1.876637        -0.244214
 H         3.699316        -0.481364        -1.968741
 H         5.246468        -0.685378        -1.104593
 H         3.880489        -2.037947         0.612382
 H         3.997938         0.525758         1.857744
