19
Iteration:  1352charge 0 multiplicity 1
 C        -0.032251        -0.030509        -0.047065
 C         1.410215         0.116986        -0.025166
 C         2.207963         1.100206        -0.884996
 C         3.595166         0.953193        -0.378503
 C         4.203194        -0.371873        -0.947278
 C         3.437907        -1.118532         0.104569
 O         2.004016        -1.197839        -0.355358
 C         3.344723         0.182571         1.043732
 O         1.983545         0.367415         1.336527
 H        -0.410049        -0.560035         0.965329
 H        -0.421833         0.972735         0.119100
 H        -0.485614        -0.431721        -0.991130
 H         2.155134         1.010725        -1.929216
 H         1.716397         2.038183        -0.573281
 H         4.275738         1.819446        -0.289500
 H         3.973868        -0.680132        -2.014027
 H         5.275350        -0.280671        -0.740208
 H         3.877341        -2.001450         0.467498
 H         3.961055         0.241301         1.984417
