19
Iteration:  2828charge 0 multiplicity 1
 C        -0.043194         0.050928        -0.212314
 C         1.509467         0.008408         0.054326
 C         2.149865         1.071632        -0.835430
 C         3.546237         0.926841        -0.440775
 C         4.252913        -0.331412        -0.910273
 C         3.426150        -1.054506         0.147986
 O         1.988221        -1.259770        -0.223826
 C         3.351768         0.187485         0.911192
 O         2.004677         0.397682         1.368216
 H        -0.780948        -0.735763         0.220866
 H        -0.430145         0.839757         0.384903
 H        -0.300000         0.128967        -1.292224
 H         1.777652         0.904778        -1.836631
 H         1.779022         2.039578        -0.462742
 H         4.231889         1.754516        -0.404890
 H         4.024487        -0.725731        -1.921420
 H         5.276487        -0.348858        -0.766914
 H         3.840755        -2.013391         0.513245
 H         4.100203         0.461442         1.768271
