19
Iteration:  4519charge 0 multiplicity 1
 C        -0.027493        -0.024132         0.031893
 C         1.452031         0.077082        -0.057877
 C         2.180746         1.164758        -0.998864
 C         3.666834         0.954697        -0.369042
 C         4.256936        -0.319758        -0.923925
 C         3.427639        -1.177420         0.175431
 O         2.024576        -1.257007        -0.346543
 C         3.282753         0.167074         0.999316
 O         1.914647         0.421966         1.337461
 H        -0.071694        -0.855712         0.813493
 H        -0.497078         0.916301         0.383784
 H        -0.600715        -0.172041        -0.879134
 H         2.194817         0.881423        -2.012312
 H         1.803384         2.178095        -0.641474
 H         4.315826         1.844595        -0.387631
 H         3.859193        -0.491339        -2.029522
 H         5.299739        -0.312780        -0.752561
 H         3.673454        -2.190399         0.514564
 H         3.843480         0.281259         1.934645
