19
Iteration:  1697charge 0 multiplicity 1
 C        -0.032522        -0.068582         0.022144
 C         1.432333         0.123392         0.015327
 C         2.189549         1.183168        -0.928541
 C         3.703864         0.929225        -0.383551
 C         4.208173        -0.428641        -0.954227
 C         3.389058        -1.137658         0.126066
 O         2.076863        -1.243467        -0.275725
 C         3.264450         0.226779         0.979927
 O         1.915543         0.463116         1.282402
 H        -0.272744        -1.055478         0.571734
 H        -0.467675         0.779494         0.549696
 H        -0.408150        -0.286273        -1.003947
 H         1.997723         0.860822        -1.901755
 H         1.816722         2.160385        -0.870139
 H         4.291746         1.916207        -0.469050
 H         4.095107        -0.563716        -2.046816
 H         5.273694        -0.542262        -0.768084
 H         3.657271        -2.145794         0.588125
 H         3.999913         0.262135         1.803113
