19
Iteration:  4083charge 0 multiplicity 1
 C        -0.061162        -0.064625        -0.074538
 C         1.528680         0.061807        -0.030072
 C         2.169624         1.179521        -0.831663
 C         3.579097         0.999256        -0.296879
 C         4.136813        -0.393493        -0.996424
 C         3.445651        -1.142466         0.124346
 O         2.025657        -1.190632        -0.273488
 C         3.378059         0.170738         0.983302
 O         1.951662         0.392286         1.321622
 H        -0.419893        -0.764806         0.674387
 H        -0.486239         0.974086        -0.064605
 H        -0.333727        -0.414096        -1.126525
 H         2.135995         1.174067        -1.883143
 H         1.871176         2.091187        -0.541467
 H         4.370963         1.756289        -0.458584
 H         3.801774        -0.711680        -1.955869
 H         5.267068        -0.496592        -1.117865
 H         3.771624        -2.123941         0.395570
 H         3.983919         0.388556         1.861850
