19
Iteration:  3381charge 0 multiplicity 1
 C        -0.006589        -0.023004        -0.169602
 C         1.536892         0.067558         0.067404
 C         2.144086         1.205216        -0.808171
 C         3.612891         0.947356        -0.436865
 C         4.208162        -0.401288        -1.012377
 C         3.368280        -1.122451         0.175000
 O         2.034114        -1.276804        -0.244818
 C         3.351022         0.251193         0.951187
 O         1.924576         0.360896         1.356866
 H        -0.470672        -0.770649         0.422270
 H        -0.409654         0.968492         0.022433
 H        -0.264696        -0.185542        -1.235757
 H         1.865456         1.091831        -1.844775
 H         1.744312         2.126384        -0.396971
 H         4.288443         1.790104        -0.489031
 H         3.903398        -0.811867        -1.957158
 H         5.318449        -0.299553        -0.824203
 H         3.815990        -2.030647         0.654524
 H         4.014725         0.504061         1.746473
