19
Iteration:  1134
 C        -0.045982         0.078875         0.023975
 C         1.438589        -0.004417        -0.012308
 C         2.094296         0.982975        -0.922271
 C         3.610814         0.998678        -0.357227
 C         4.339466        -0.358125        -0.903577
 C         3.397388        -1.091862         0.087891
 O         2.030552        -1.264366        -0.375381
 C         3.327370         0.191376         1.007858
 O         1.964735         0.432582         1.325797
 H        -0.576776        -0.572239         0.651553
 H        -0.302611         1.102774         0.299474
 H        -0.504059        -0.040484        -0.992192
 H         1.967763         0.743975        -1.980865
 H         1.810383         2.053934        -0.782182
 H         4.143261         1.973813        -0.206215
 H         4.223629        -0.514300        -2.000506
 H         5.410262        -0.324844        -0.734879
 H         3.727610        -2.070640         0.559025
 H         3.954559         0.209599         1.970300
