19
Iteration:   841
 C        -0.031231        -0.123351         0.111079
 C         1.449114         0.124725        -0.012614
 C         2.151955         1.126866        -0.942000
 C         3.625347         0.959409        -0.413094
 C         4.312088        -0.459300        -0.814334
 C         3.317113        -1.097082         0.158674
 O         2.051561        -1.212856        -0.450858
 C         3.333703         0.254524         0.943323
 O         1.963398         0.468144         1.289547
 H        -0.301776        -0.753451         0.919515
 H        -0.652725         0.913795         0.167307
 H        -0.377853        -0.444507        -0.913400
 H         2.164037         0.845311        -1.991323
 H         1.634548         2.071363        -0.769172
 H         4.169497         1.828803        -0.305226
 H         4.158353        -0.717207        -1.875780
 H         5.312494        -0.670597        -0.447879
 H         3.461335        -2.085711         0.687492
 H         4.019770         0.331166         1.814094
