19
Iteration:  1789charge 0 multiplicity 1
 C        -0.074639        -0.063092         0.135941
 C         1.476700         0.094334        -0.042353
 C         2.202259         1.118966        -0.962255
 C         3.644226         0.997682        -0.389618
 C         4.299844        -0.355274        -0.890266
 C         3.368141        -1.145888         0.140232
 O         1.979882        -1.222190        -0.339275
 C         3.317840         0.237737         0.980444
 O         1.928929         0.414595         1.255724
 H        -0.401003        -0.645803         0.959108
 H        -0.582430         0.953359         0.051947
 H        -0.323805        -0.728036        -0.727553
 H         2.105064         0.735603        -2.033001
 H         1.969129         2.207584        -0.934709
 H         4.335495         1.912577        -0.618508
 H         4.257116        -0.750809        -1.952805
 H         5.374057        -0.638775        -0.549420
 H         3.756684        -2.057696         0.609174
 H         3.873309         0.153334         1.949061
