19
Iteration:  2274charge 0 multiplicity 1
 C        -0.057702        -0.086796        -0.085604
 C         1.508247         0.109145         0.045304
 C         2.123113         1.194364        -0.838564
 C         3.592476         0.985472        -0.413954
 C         4.152329        -0.466768        -0.950447
 C         3.477769        -1.096008         0.195361
 O         2.077388        -1.180930        -0.331096
 C         3.368449         0.185323         0.949099
 O         1.944299         0.386247         1.320852
 H        -0.377399        -1.033100         0.349766
 H        -0.667848         0.826330         0.302077
 H        -0.291064         0.016077        -1.225181
 H         2.129702         1.054891        -1.890574
 H         1.794478         2.134338        -0.476518
 H         4.384771         1.731752        -0.328605
 H         3.778365        -0.973635        -1.876687
 H         5.206119        -0.419951        -0.900886
 H         3.427339        -2.091502         0.745963
 H         4.017877         0.402980         1.735514
