19
Iteration:  1949charge 0 multiplicity 1
 C        -0.008321        -0.062343         0.158869
 C         1.399394         0.050563        -0.036076
 C         2.192129         1.087646        -0.965491
 C         3.630278         1.027158        -0.357999
 C         4.363500        -0.353184        -0.859760
 C         3.387665        -1.115540         0.157312
 O         1.985158        -1.219966        -0.378180
 C         3.302245         0.163778         0.922149
 O         1.903912         0.436948         1.223861
 H        -0.313866        -0.460831         1.116768
 H        -0.446459         0.995871         0.082845
 H        -0.420394        -0.656450        -0.728937
 H         2.035661         0.895059        -2.068149
 H         1.816330         2.154507        -0.614318
 H         4.390853         1.828575        -0.463733
 H         3.999652        -0.683937        -1.923067
 H         5.368888        -0.537313        -0.518018
 H         3.938664        -2.019387         0.613684
 H         3.920153         0.264504         1.820929
