19
Iteration:  4937
 C        -0.160920         0.043163         0.023218
 C         1.429766         0.041203        -0.038609
 C         2.247225         1.103462        -0.932608
 C         3.601616         0.899991        -0.328339
 C         4.306754        -0.331730        -0.878234
 C         3.444771        -1.119871         0.058565
 O         2.042181        -1.192239        -0.315114
 C         3.301392         0.220951         0.989388
 O         1.949954         0.325830         1.334704
 H        -0.397761        -0.793679         0.626683
 H        -0.386154         1.026623         0.381827
 H        -0.623568        -0.100499        -0.961305
 H         2.146893         0.749654        -1.962246
 H         1.857162         2.093645        -0.931009
 H         4.057173         1.849614        -0.485043
 H         4.048234        -0.386952        -2.027145
 H         5.378387        -0.245139        -0.747317
 H         3.638617        -2.127816         0.408332
 H         4.081862         0.334726         1.751644
