19
Iteration:  4545charge 0 multiplicity 1
 C        -0.094587        -0.018394         0.074179
 C         1.420703         0.027646         0.029234
 C         2.160410         1.093955        -0.906567
 C         3.632534         0.979229        -0.381740
 C         4.314146        -0.393839        -0.856722
 C         3.419204        -1.066274         0.116380
 O         2.012707        -1.190298        -0.384182
 C         3.358803         0.207738         0.911277
 O         1.943701         0.373269         1.230034
 H        -0.265194        -0.840691         0.685248
 H        -0.518526         0.877722         0.486463
 H        -0.512282         0.024199        -0.920538
 H         2.196856         0.809824        -1.978270
 H         1.855269         2.010243        -0.478584
 H         4.129871         1.986089        -0.397078
 H         4.276218        -0.726021        -1.907540
 H         5.260536        -0.453564        -0.173396
 H         3.564854        -2.071994         0.549724
 H         3.896426         0.323561         1.842053
