19
Iteration:  1572charge 0 multiplicity 1
 C        -0.090343        -0.092545        -0.092326
 C         1.497626         0.111754         0.034322
 C         2.221856         1.208714        -0.842771
 C         3.603467         0.925482        -0.412657
 C         4.158730        -0.457663        -0.940619
 C         3.427143        -1.113868         0.115144
 O         2.032828        -1.175135        -0.302120
 C         3.327732         0.241206         0.970963
 O         1.984158         0.391733         1.326662
 H        -0.476138        -0.655264         0.835289
 H        -0.708523         0.862047        -0.012463
 H        -0.329311        -0.738949        -0.950837
 H         2.194628         1.108169        -1.997256
 H         1.814257         2.235089        -0.575066
 H         4.235857         1.763273        -0.312948
 H         4.016170        -0.681600        -1.990276
 H         5.222174        -0.670587        -0.660678
 H         3.688137        -2.033084         0.617103
 H         4.039787         0.299678         1.753695
