19
Iteration:  1020charge 0 multiplicity 1
 C        -0.089433         0.087886        -0.070897
 C         1.396191         0.056987         0.049200
 C         2.123512         1.035371        -0.879144
 C         3.655683         0.969213        -0.392211
 C         4.243387        -0.322095        -0.899618
 C         3.423043        -1.089368         0.119183
 O         2.033283        -1.338691        -0.290328
 C         3.354296         0.194109         0.972324
 O         2.008024         0.398339         1.311882
 H        -0.687832        -0.631472         0.651573
 H        -0.300898         1.150981        -0.246187
 H        -0.126086        -0.289957        -1.099412
 H         1.924094         0.791989        -1.965756
 H         1.708723         2.003459        -0.671958
 H         4.062851         2.055085        -0.548445
 H         4.178594        -0.367006        -1.977068
 H         5.344382        -0.341646        -0.681061
 H         3.729209        -1.953828         0.650523
 H         3.949022         0.263379         1.845992
