19
Iteration:  1149charge 0 multiplicity 1
 C        -0.066349         0.123272        -0.054644
 C         1.436254         0.067211         0.005364
 C         2.218855         1.112574        -0.928131
 C         3.604478         0.932421        -0.364256
 C         4.231252        -0.262967        -0.959715
 C         3.485581        -1.120408         0.131929
 O         2.057795        -1.283126        -0.209941
 C         3.295112         0.158673         0.945245
 O         1.921568         0.310208         1.292991
 H        -0.494301        -0.538337         0.776610
 H        -0.392852         1.105531         0.254672
 H        -0.394176        -0.283608        -0.987821
 H         2.138208         0.873603        -2.066183
 H         1.608664         1.988281        -0.746470
 H         4.080456         1.867060        -0.407066
 H         3.883535        -0.538770        -1.937225
 H         5.305950        -0.441323        -0.731161
 H         3.886421        -2.105486         0.556201
 H         3.969642         0.333484         1.736728
