19
Iteration:   115charge 0 multiplicity 1
 C        -0.099029        -0.034448        -0.127007
 C         1.396677         0.119399         0.170990
 C         2.106613         1.043288        -0.826339
 C         3.629787         0.974467        -0.478544
 C         4.235308        -0.392000        -0.966894
 C         3.435889        -1.112262         0.088324
 O         2.068384        -1.373297        -0.201931
 C         3.412636         0.232936         0.971630
 O         1.941917         0.568300         1.264899
 H        -0.546973        -0.896132         0.311082
 H        -0.667511         0.932986         0.302073
 H        -0.196003        -0.094739        -1.196893
 H         2.000614         0.762348        -1.899901
 H         1.884882         2.111491        -0.563947
 H         4.279209         1.913879        -0.534790
 H         3.984757        -0.693910        -2.031948
 H         5.372303        -0.520966        -0.803483
 H         4.049885        -2.072675         0.599288
 H         3.979597         0.290378         1.913891
