19
Iteration:  1186charge 0 multiplicity 1
 C        -0.005957        -0.061907        -0.134240
 C         1.470744         0.044178         0.042280
 C         2.188530         1.132374        -0.778464
 C         3.599264         0.912831        -0.444226
 C         4.198516        -0.373183        -0.923225
 C         3.359043        -1.078368         0.143335
 O         2.024821        -1.214060        -0.278759
 C         3.361283         0.154599         0.930422
 O         1.968800         0.470147         1.340244
 H        -0.355933        -0.705057         0.632058
 H        -0.666840         0.884136        -0.268119
 H        -0.239985        -0.606276        -1.099929
 H         2.115983         1.134450        -1.795596
 H         1.876144         2.126335        -0.382976
 H         4.299324         1.786147        -0.236164
 H         3.775657        -0.521009        -1.944711
 H         5.242744        -0.392429        -1.070143
 H         3.636769        -2.007252         0.462241
 H         4.083641         0.265810         1.777902
