19
Iteration:  3979
 C        -0.100907         0.046674         0.009664
 C         1.473359         0.091341         0.021212
 C         2.133044         1.081791        -0.947079
 C         3.591942         0.997154        -0.353155
 C         4.302373        -0.289437        -0.898813
 C         3.405494        -1.172634         0.113578
 O         2.014623        -1.247914        -0.314034
 C         3.343898         0.153749         0.980005
 O         1.999686         0.381303         1.270884
 H        -0.433132        -0.889576         0.614503
 H        -0.620749         0.867588         0.570074
 H        -0.512286        -0.133323        -0.973913
 H         2.267983         0.736135        -1.997271
 H         1.693302         2.149831        -0.765131
 H         4.152938         1.912978        -0.384842
 H         4.080061        -0.544788        -1.961866
 H         5.313805        -0.286391        -0.623347
 H         3.847331        -2.182891         0.287828
 H         3.914621         0.160505         1.902597
