19
Iteration:   252
 C        -0.078332        -0.134233        -0.103571
 C         1.432904         0.061382        -0.032285
 C         2.175065         1.235513        -0.847876
 C         3.609783         0.932207        -0.418256
 C         4.162867        -0.437792        -0.983068
 C         3.422306        -1.113294         0.217622
 O         1.985812        -1.246816        -0.226754
 C         3.427112         0.287297         0.960537
 O         2.009232         0.447848         1.302914
 H        -0.418370        -0.886408         0.702693
 H        -0.631218         0.764887        -0.098218
 H        -0.273813        -0.690124        -1.077761
 H         2.072562         1.217610        -1.930407
 H         1.823513         2.186971        -0.418649
 H         4.316407         1.749014        -0.393190
 H         3.922123        -0.692966        -2.017142
 H         5.218947        -0.527362        -0.841764
 H         3.793452        -1.994215         0.594704
 H         4.156265         0.513127         1.831119
