19
Iteration:  2148
 C        -0.058727        -0.157177        -0.147172
 C         1.486537         0.102691         0.075317
 C         2.173867         1.181529        -0.889949
 C         3.732938         0.959787        -0.357973
 C         4.125438        -0.363121        -0.998723
 C         3.313219        -1.099059         0.106784
 O         2.006352        -1.221889        -0.239587
 C         3.371732         0.215449         1.015738
 O         1.993720         0.418267         1.368723
 H        -0.640417        -0.661785         0.600422
 H        -0.560767         0.771726        -0.234939
 H        -0.163733        -0.661538        -1.100086
 H         2.181849         1.062738        -1.963985
 H         1.831224         2.236233        -0.629715
 H         4.365349         1.838794        -0.610286
 H         3.995362        -0.628003        -2.058902
 H         5.220226        -0.560622        -0.837918
 H         3.703425        -2.056986         0.319277
 H         4.047404         0.266376         1.896479
