19
Iteration:  3456charge 0 multiplicity 1
 C        -0.127447        -0.042575         0.073722
 C         1.432107         0.032754        -0.027988
 C         2.111808         1.195703        -0.942377
 C         3.620415         0.871342        -0.405506
 C         4.327753        -0.370856        -0.841756
 C         3.403604        -1.197946         0.202166
 O         2.038834        -1.152746        -0.424310
 C         3.338285         0.210361         0.911326
 O         1.968463         0.437693         1.328455
 H        -0.375709        -0.888426         0.624341
 H        -0.451347         0.900786         0.469761
 H        -0.513664        -0.236152        -0.921519
 H         2.100302         0.863949        -2.013027
 H         1.801719         2.280907        -0.691610
 H         4.179404         1.753164        -0.623737
 H         4.559914        -0.600587        -1.850432
 H         5.173540        -0.366759        -0.244374
 H         3.782398        -2.205941         0.572274
 H         4.067201         0.384041         1.657153
