19
Iteration:  3988
 C        -0.133728         0.061104         0.049434
 C         1.459302         0.068933        -0.051314
 C         2.135818         1.048767        -0.946925
 C         3.641477         0.959828        -0.352270
 C         4.237564        -0.291448        -0.849589
 C         3.463823        -1.136163         0.093146
 O         2.025775        -1.207438        -0.328339
 C         3.379838         0.180516         1.016152
 O         1.948266         0.305385         1.262321
 H        -0.358939        -0.781138         0.692202
 H        -0.296739         1.014859         0.570222
 H        -0.510671         0.048901        -0.941488
 H         1.984197         0.732530        -2.027635
 H         1.654081         2.190049        -0.953415
 H         4.074246         1.891151        -0.393655
 H         4.216239        -0.428630        -1.913416
 H         5.343544        -0.367031        -0.777538
 H         3.769259        -2.109157         0.516377
 H         4.052090         0.364887         1.864105
