19
Iteration:  4517charge 0 multiplicity 1
 C        -0.022828        -0.017013         0.035535
 C         1.469290         0.073468        -0.047763
 C         2.186767         1.158601        -0.984095
 C         3.645727         0.970737        -0.366367
 C         4.239459        -0.329366        -0.930619
 C         3.432208        -1.170474         0.155834
 O         2.024535        -1.238226        -0.326635
 C         3.306563         0.138696         1.003936
 O         1.897272         0.421107         1.313182
 H        -0.140361        -0.897691         0.785925
 H        -0.568180         0.936599         0.350957
 H        -0.586802        -0.223357        -0.946034
 H         2.176318         0.874240        -2.069652
 H         1.884469         2.220741        -0.690029
 H         4.271968         1.837641        -0.308363
 H         3.890014        -0.543810        -1.969651
 H         5.288858        -0.318726        -0.800408
 H         3.764653        -2.172792         0.587772
 H         3.904540         0.292420         1.959185
