19
Iteration:   400charge 0 multiplicity 1
 C        -0.003958        -0.017694        -0.003097
 C         1.477821         0.083864        -0.045581
 C         2.178254         1.210099        -0.850727
 C         3.621377         1.011141        -0.370478
 C         4.177801        -0.365355        -0.941514
 C         3.383540        -1.068130         0.182268
 O         2.006038        -1.302294        -0.324135
 C         3.295283         0.197821         0.948016
 O         2.008171         0.331187         1.256533
 H        -0.302500        -0.707926         0.908335
 H        -0.568486         0.877512         0.147440
 H        -0.377171        -0.643326        -0.878644
 H         2.171943         1.046011        -1.956471
 H         1.839835         2.205091        -0.551120
 H         4.163870         1.989152        -0.462977
 H         3.999447        -0.783372        -1.950029
 H         5.283738        -0.528988        -0.651145
 H         3.761463        -2.015496         0.768898
 H         3.960752         0.304834         1.760226
