19
Iteration:  4185
 C        -0.057454        -0.032898        -0.072687
 C         1.450675         0.066758        -0.052988
 C         2.153651         1.176641        -0.826197
 C         3.592716         0.951320        -0.476322
 C         4.194855        -0.391003        -0.942881
 C         3.399809        -1.079850         0.169885
 O         2.033859        -1.258467        -0.314358
 C         3.417878         0.203310         1.005460
 O         1.960567         0.389656         1.329226
 H        -0.294665        -1.038172         0.378272
 H        -0.504806         0.877909         0.321475
 H        -0.499835        -0.164978        -1.046325
 H         2.112709         1.322990        -1.913788
 H         1.947553         2.060506        -0.338820
 H         4.368718         1.772525        -0.290285
 H         3.793885        -0.672836        -2.010664
 H         5.348526        -0.432895        -0.598086
 H         3.712775        -2.007355         0.730742
 H         3.999748         0.278409         1.958695
