19
Iteration:  3082charge 0 multiplicity 1
 C        -0.054611         0.015309        -0.118645
 C         1.422307         0.101363         0.031289
 C         2.211982         1.109745        -0.847506
 C         3.651797         0.940706        -0.394240
 C         4.246587        -0.340588        -0.923795
 C         3.411153        -1.126940         0.131201
 O         1.954961        -1.196278        -0.321433
 C         3.355344         0.226624         0.950818
 O         1.978114         0.306597         1.369323
 H        -0.370976        -0.746964         0.576547
 H        -0.526134         1.023646         0.196759
 H        -0.222844        -0.322360        -1.158944
 H         1.994370         0.961460        -1.932499
 H         1.725643         2.010573        -0.496021
 H         4.048039         2.003368        -0.382588
 H         4.182741        -0.817470        -2.021467
 H         5.312658        -0.326490        -0.671099
 H         3.678468        -2.209709         0.512766
 H         4.035127         0.370728         1.747466
