19
Iteration:  2519
 C        -0.080110        -0.105878         0.031632
 C         1.485575         0.053595        -0.041194
 C         2.149487         1.137889        -0.910446
 C         3.669472         0.980018        -0.411585
 C         4.219918        -0.402228        -0.887129
 C         3.379759        -1.116055         0.098326
 O         1.983256        -1.227315        -0.320438
 C         3.303288         0.214398         0.990363
 O         1.973155         0.453029         1.299322
 H        -0.150669        -0.675961         0.992173
 H        -0.369556         0.986870         0.169213
 H        -0.290855        -0.779331        -0.805936
 H         2.148036         1.064270        -2.030539
 H         2.005409         2.211433        -0.700830
 H         4.231751         1.980404        -0.211768
 H         4.124486        -0.666601        -1.894273
 H         5.306823        -0.328925        -0.694886
 H         3.759397        -2.023573         0.498976
 H         4.118045         0.306452         1.657435
