19
Iteration:   343
 C        -0.024510        -0.014969        -0.083565
 C         1.437895         0.019658         0.019587
 C         2.115209         1.114710        -0.894960
 C         3.628506         0.984044        -0.412453
 C         4.239744        -0.334620        -0.910677
 C         3.422234        -1.147893         0.119426
 O         1.999159        -1.261898        -0.249585
 C         3.386401         0.260587         0.961120
 O         1.998204         0.363873         1.338574
 H        -0.554919        -0.827853         0.329964
 H        -0.472045         1.006518         0.407223
 H        -0.459759         0.071278        -1.082837
 H         2.003286         0.914473        -1.993009
 H         1.671425         2.122700        -0.706171
 H         4.089982         2.060876        -0.429351
 H         3.951719        -0.552586        -1.965862
 H         5.331774        -0.482028        -0.692653
 H         3.657951        -2.175396         0.475202
 H         4.082895         0.473897         1.741180
