19
Iteration:   339
 C        -0.024664         0.005922        -0.051967
 C         1.452490         0.000373        -0.045678
 C         2.150948         1.107886        -0.901169
 C         3.593896         0.987441        -0.449262
 C         4.234550        -0.341842        -0.904748
 C         3.450934        -1.153926         0.119470
 O         1.975040        -1.236231        -0.227203
 C         3.352023         0.283920         0.993300
 O         2.001438         0.321425         1.335295
 H        -0.551292        -0.821464         0.462216
 H        -0.338501         0.939706         0.406220
 H        -0.387032         0.180795        -1.071059
 H         2.006532         0.921932        -1.954370
 H         1.726361         2.108979        -0.746663
 H         3.999992         1.977155        -0.433585
 H         4.081719        -0.501737        -1.984322
 H         5.271833        -0.415145        -0.686170
 H         3.719067        -2.138865         0.366032
 H         4.049125         0.528522         1.881317
