19
Iteration:  2009
 C        -0.047267         0.037893        -0.169944
 C         1.464032         0.119654         0.055420
 C         2.135790         1.175743        -0.844247
 C         3.590153         0.925257        -0.377808
 C         4.153386        -0.353705        -1.033222
 C         3.447700        -1.151447         0.191581
 O         2.088183        -1.349785        -0.221944
 C         3.378544         0.243699         0.953814
 O         1.941493         0.383892         1.334149
 H        -0.434286        -0.829992         0.498269
 H        -0.471055         0.998110         0.137320
 H        -0.154984        -0.103635        -1.254709
 H         1.853718         0.961638        -1.870313
 H         1.732573         2.063295        -0.528636
 H         4.203159         1.863259        -0.628414
 H         3.997439        -0.667155        -1.992446
 H         5.236638        -0.469873        -0.833983
 H         3.778760        -2.050128         0.665976
 H         4.038111         0.546444         1.794813
