19
Iteration:  3699
 C        -0.101167        -0.148236        -0.039508
 C         1.482559         0.159941         0.036224
 C         2.167515         1.081708        -0.886807
 C         3.676247         0.964590        -0.356682
 C         4.293168        -0.385018        -0.893168
 C         3.345904        -1.130579         0.090245
 O         1.961024        -1.175707        -0.321859
 C         3.322693         0.234283         0.953784
 O         2.013203         0.429734         1.299941
 H        -0.493278        -0.745186         0.794713
 H        -0.689374         0.717737         0.075537
 H        -0.347873        -0.640529        -0.922208
 H         2.126168         0.652540        -1.920932
 H         1.809559         2.218582        -0.773764
 H         4.230642         1.931438        -0.404156
 H         4.234757        -0.528392        -1.930805
 H         5.328394        -0.431777        -0.629500
 H         3.631956        -2.095892         0.529664
 H         4.059767         0.368927         1.767161
