19
Iteration:  3281
 C        -0.062333         0.115854        -0.082498
 C         1.434103         0.048708         0.074495
 C         2.098240         1.031403        -0.873049
 C         3.556647         0.936733        -0.426862
 C         4.277272        -0.315011        -0.945280
 C         3.404977        -1.138381         0.089703
 O         2.105179        -1.246374        -0.347440
 C         3.353581         0.169762         1.034898
 O         1.942300         0.374601         1.379222
 H        -0.518129        -0.662837         0.568773
 H        -0.452905         1.073872         0.102940
 H        -0.279584        -0.031439        -1.117426
 H         1.982567         0.947878        -1.954595
 H         1.925972         2.062357        -0.770349
 H         4.106943         1.889268        -0.334987
 H         4.349581        -0.562344        -2.052106
 H         5.329565        -0.314538        -0.610055
 H         3.785526        -2.212286         0.317155
 H         3.981134         0.391919         1.973381
