19
Iteration:  2908
 C        -0.136126         0.016209         0.105314
 C         1.464161         0.136529         0.041538
 C         2.166876         1.112939        -0.925708
 C         3.588500         0.959516        -0.462386
 C         4.378207        -0.341750        -0.815862
 C         3.366524        -1.171336         0.159935
 O         2.078336        -1.216738        -0.395722
 C         3.313521         0.189895         0.872504
 O         1.926615         0.307060         1.307442
 H        -0.577223        -0.575827         0.920545
 H        -0.567543         1.102238         0.025772
 H        -0.402777        -0.312260        -0.924380
 H         2.110509         0.866264        -2.033809
 H         1.913583         2.269985        -0.791424
 H         4.170540         1.911238        -0.480456
 H         4.336446        -0.522861        -1.905958
 H         5.384936        -0.317413        -0.430053
 H         3.729252        -2.221288         0.582251
 H         3.844553         0.352671         1.827598
