19
Iteration:  3812charge 0 multiplicity 1
 C        -0.057808        -0.082905        -0.095991
 C         1.472624         0.108561        -0.021499
 C         2.197833         1.195853        -0.832665
 C         3.600113         0.932017        -0.438017
 C         4.216965        -0.361328        -0.988439
 C         3.373949        -1.133771         0.189772
 O         2.070236        -1.239599        -0.257874
 C         3.347496         0.201896         0.954438
 O         1.942221         0.415199         1.341215
 H        -0.234699        -1.025437         0.348915
 H        -0.374187         0.843785         0.416000
 H        -0.341670        -0.006377        -1.189825
 H         1.998057         1.069786        -1.905621
 H         1.550464         2.002583        -0.288814
 H         4.266386         1.795162        -0.488166
 H         3.914734        -0.666955        -1.932731
 H         5.248165        -0.422858        -0.709886
 H         3.639674        -2.153317         0.493565
 H         4.042893         0.259376         1.797851
