19
Iteration:   707charge 0 multiplicity 1
 C        -0.008530        -0.039558         0.068997
 C         1.451086         0.202713        -0.036289
 C         2.173399         1.141749        -1.005922
 C         3.523155         0.937210        -0.367403
 C         4.312693        -0.385621        -0.866253
 C         3.417418        -1.197732         0.160798
 O         2.020655        -1.210763        -0.299080
 C         3.301200         0.170349         0.922116
 O         1.955248         0.412667         1.252659
 H        -0.171843        -1.006031         0.698867
 H        -0.353086         0.682689         0.822412
 H        -0.561146        -0.144914        -0.849036
 H         2.156887         0.748045        -1.998371
 H         1.704175         2.144713        -1.000709
 H         4.087668         1.835606        -0.379579
 H         4.333687        -0.576659        -1.935453
 H         5.346524        -0.289370        -0.505025
 H         3.586350        -2.171209         0.654302
 H         3.931467         0.427290         1.801411
