19
Iteration:  2451
 C        -0.055868         0.068327        -0.067801
 C         1.465732         0.018312         0.013656
 C         2.135670         1.099597        -0.839275
 C         3.588784         0.967799        -0.440923
 C         4.229416        -0.346094        -0.925957
 C         3.431732        -1.069721         0.171296
 O         2.052995        -1.336595        -0.274847
 C         3.419950         0.246995         0.971848
 O         1.929150         0.376941         1.254086
 H        -0.531142        -0.872697         0.455526
 H        -0.269807         0.951062         0.535333
 H        -0.284887         0.109673        -1.133640
 H         1.780682         1.071763        -1.810455
 H         1.581464         1.910460        -0.492879
 H         4.178426         1.849560        -0.486781
 H         3.926133        -0.750414        -1.917069
 H         5.273641        -0.413376        -0.755091
 H         3.787502        -2.061144         0.525176
 H         3.983436         0.559610         1.900361
