19
Iteration:  1734charge 0 multiplicity 1
 C        -0.052674         0.025568        -0.179287
 C         1.483505         0.066594         0.040963
 C         2.113160         1.111716        -0.830580
 C         3.606986         0.974474        -0.448547
 C         4.223382        -0.329986        -1.004648
 C         3.373806        -1.140475         0.149160
 O         2.027574        -1.285823        -0.163074
 C         3.346182         0.241759         0.898565
 O         2.008333         0.353815         1.405653
 H        -0.668284        -0.497265         0.546348
 H        -0.470342         1.069027        -0.288889
 H        -0.125275        -0.337337        -1.206017
 H         1.992269         0.839173        -1.925469
 H         1.803428         2.179892        -0.676514
 H         4.332948         1.879180        -0.486033
 H         3.984180        -0.682307        -2.065969
 H         5.236029        -0.646961        -0.631213
 H         3.896603        -1.944874         0.695857
 H         4.033178         0.480913         1.743312
