19
Iteration:  1806charge 0 multiplicity 1
 C        -0.096750        -0.103876         0.053128
 C         1.446949         0.138197        -0.005138
 C         2.179639         1.066762        -0.968775
 C         3.615508         0.907883        -0.456744
 C         4.378572        -0.423377        -0.851284
 C         3.361709        -1.080022         0.096056
 O         2.007944        -1.129702        -0.321568
 C         3.281513         0.196882         0.993878
 O         1.955430         0.432220         1.285106
 H        -0.030464        -0.686841         1.071175
 H        -0.659416         0.734254         0.405487
 H        -0.524069        -0.602932        -0.796353
 H         2.031774         0.881286        -2.032415
 H         1.924668         2.140775        -0.780826
 H         4.254058         1.768752        -0.325159
 H         4.414155        -0.670889        -1.910444
 H         5.264924        -0.273254        -0.314936
 H         3.481326        -2.160797         0.378348
 H         4.141706         0.432041         1.633680
