19
Iteration:   878charge 0 multiplicity 1
 C        -0.044570        -0.036434        -0.015856
 C         1.480867         0.120094         0.015320
 C         2.153447         1.105286        -0.961045
 C         3.597075         0.937051        -0.400853
 C         4.298173        -0.400157        -0.899600
 C         3.338164        -1.113783         0.134075
 O         2.040131        -1.266762        -0.236069
 C         3.311162         0.232449         0.955196
 O         1.941429         0.433163         1.292928
 H        -0.374678        -1.026541         0.512667
 H        -0.483895         0.790392         0.421586
 H        -0.406026        -0.173057        -1.050560
 H         2.163998         0.961083        -2.114383
 H         1.735837         2.092984        -0.778222
 H         4.276517         1.916506        -0.360600
 H         4.213789        -0.736769        -1.944974
 H         5.426907        -0.351125        -0.670904
 H         3.786148        -1.994551         0.551674
 H         4.062496         0.551361         1.684749
