19
Iteration:  2367charge 0 multiplicity 1
 C        -0.113111         0.106178         0.098020
 C         1.426766         0.078586        -0.004807
 C         2.176407         1.125117        -0.920738
 C         3.596337         0.953913        -0.419780
 C         4.318986        -0.354862        -0.860507
 C         3.430734        -1.108559         0.143531
 O         2.096611        -1.276660        -0.389517
 C         3.264674         0.238864         0.974462
 O         1.953867         0.268820         1.254879
 H        -0.400416        -0.425821         1.035592
 H        -0.482730         1.115244         0.075755
 H        -0.535917        -0.320270        -0.779597
 H         1.939965         0.669736        -1.937151
 H         1.555240         2.045217        -0.594038
 H         4.149830         1.929051        -0.484987
 H         4.135080        -0.701003        -1.862770
 H         5.453546        -0.293168        -0.702418
 H         3.926098        -1.963702         0.549491
 H         3.965925         0.420323         1.810862
