19
Iteration:  2143charge 0 multiplicity 1
 C        -0.034583        -0.104181        -0.144484
 C         1.463100         0.117777         0.104010
 C         2.206517         1.168416        -0.894918
 C         3.692946         0.960869        -0.359055
 C         4.149184        -0.355147        -1.007650
 C         3.355194        -1.088372         0.128315
 O         1.997401        -1.248861        -0.238950
 C         3.402362         0.242462         0.997000
 O         1.971759         0.392852         1.346326
 H        -0.667302        -0.749624         0.535820
 H        -0.687872         0.838234        -0.195239
 H        -0.159806        -0.780611        -1.043544
 H         2.144882         1.070903        -2.010665
 H         1.689166         2.164624        -0.707606
 H         4.372182         1.822832        -0.351057
 H         3.881543        -0.470750        -2.116398
 H         5.182211        -0.681007        -0.892913
 H         3.584514        -2.197809         0.429569
 H         4.062011         0.209532         1.849054
