19
Iteration:  4974charge 0 multiplicity 1
 C        -0.008767        -0.022039         0.019399
 C         1.413350         0.076713        -0.098510
 C         2.233323         1.123104        -0.856193
 C         3.609375         0.911862        -0.372397
 C         4.241922        -0.303035        -0.880984
 C         3.387752        -1.212997         0.087646
 O         2.025400        -1.225798        -0.352054
 C         3.319107         0.240252         0.938125
 O         1.923984         0.401768         1.335649
 H        -0.386295        -0.773307         0.811593
 H        -0.389829         0.943603         0.503008
 H        -0.509811        -0.235612        -0.950986
 H         2.161089         1.004215        -1.982201
 H         1.915400         2.145162        -0.489074
 H         4.217900         1.912933        -0.375091
 H         4.208495        -0.582191        -1.901289
 H         5.270150        -0.410260        -0.543947
 H         3.777252        -2.214015         0.396163
 H         3.911735         0.453013         1.828404
