19
Iteration:  4129charge 0 multiplicity 1
 C        -0.088864         0.045490         0.030676
 C         1.454732         0.022481        -0.012212
 C         2.129703         1.033003        -0.922892
 C         3.600053         0.998076        -0.437827
 C         4.329775        -0.293305        -0.829510
 C         3.403096        -1.117322         0.036940
 O         1.993689        -1.198463        -0.365092
 C         3.331564         0.176956         0.974807
 O         1.991241         0.345777         1.364823
 H        -0.476195        -0.591865         0.854207
 H        -0.361871         1.095870         0.277464
 H        -0.491466        -0.203713        -0.926207
 H         1.970091         0.656519        -1.897955
 H         1.812115         2.009837        -0.905180
 H         4.218823         1.848469        -0.196242
 H         4.339353        -0.472943        -1.919148
 H         5.435316        -0.431517        -0.590980
 H         3.637672        -2.107105         0.432728
 H         3.957043         0.280958         1.877257
