19
Iteration:  1098charge 0 multiplicity 1
 C        -0.067183        -0.084417         0.054968
 C         1.423028         0.114143         0.003372
 C         2.189704         1.232022        -1.026894
 C         3.643304         0.909573        -0.477279
 C         4.395258        -0.395489        -0.876612
 C         3.340491        -1.074651         0.157037
 O         2.007622        -1.186976        -0.302062
 C         3.304100         0.150405         0.995473
 O         1.943255         0.362873         1.286660
 H        -0.131300        -1.042070         0.604255
 H        -0.495245         0.796272         0.753427
 H        -0.553775        -0.103194        -0.942252
 H         1.973755         1.021752        -2.028055
 H         1.712992         2.233795        -0.796943
 H         4.141175         1.945979        -0.182540
 H         4.231389        -0.721334        -1.940258
 H         5.454667        -0.432211        -0.552631
 H         3.496919        -2.028017         0.564283
 H         3.932886         0.124189         1.885056
