19
Iteration:   301charge 0 multiplicity 1
 C        -0.169507         0.047828         0.129317
 C         1.395046         0.013626        -0.008029
 C         2.146000         1.008767        -0.961395
 C         3.569586         1.015987        -0.300683
 C         4.373190        -0.342363        -0.870076
 C         3.446832        -1.158019         0.145982
 O         2.045851        -1.270782        -0.405623
 C         3.296450         0.269370         0.924141
 O         2.025623         0.422146         1.246623
 H        -0.720628        -0.679656         0.700433
 H        -0.259182         1.140619         0.522869
 H        -0.551202        -0.081673        -0.890587
 H         2.185678         0.537037        -1.978209
 H         1.766089         2.033022        -0.858113
 H         4.226892         1.938931        -0.240823
 H         4.002290        -0.622002        -1.875410
 H         5.519768        -0.428348        -0.788143
 H         3.801868        -2.203870         0.606681
 H         3.916516         0.507508         1.713954
