19
Iteration:   983charge 0 multiplicity 1
 C        -0.046394        -0.066625         0.111008
 C         1.450073         0.146452        -0.041886
 C         2.227895         1.147365        -0.998671
 C         3.637523         0.889054        -0.438818
 C         4.310579        -0.394450        -0.889771
 C         3.400128        -1.127988         0.161348
 O         2.038140        -1.152486        -0.316041
 C         3.251666         0.231977         1.048949
 O         1.889807         0.386337         1.211916
 H        -0.198777        -0.624111         1.086411
 H        -0.743896         0.772897         0.246305
 H        -0.430335        -0.724324        -0.737190
 H         2.022744         0.953474        -2.094833
 H         1.914487         2.196417        -0.740961
 H         4.261693         1.692338        -0.428556
 H         4.177940        -0.557476        -1.972813
 H         5.365350        -0.351897        -0.629830
 H         3.954763        -2.058402         0.578750
 H         3.770473        -0.116238         2.010501
