19
Iteration:  2183
 C        -0.080257        -0.027108         0.019962
 C         1.392763         0.086362         0.027168
 C         2.110037         1.212560        -0.900293
 C         3.646064         0.926087        -0.381187
 C         4.299956        -0.399851        -0.928549
 C         3.366055        -1.161243         0.157317
 O         2.072761        -1.232085        -0.336237
 C         3.362760         0.213491         0.941985
 O         1.955304         0.359008         1.264199
 H        -0.500526        -0.745720         0.774142
 H        -0.337230         1.023492         0.020892
 H        -0.272745        -0.401479        -0.959004
 H         1.895878         1.123567        -1.990715
 H         1.847231         2.202462        -0.551043
 H         4.319434         1.898937        -0.400079
 H         4.040156        -0.687726        -1.898327
 H         5.381218        -0.344945        -0.641399
 H         3.733866        -1.961606         0.785051
 H         3.995806         0.480890         1.856671
