19
Iteration:  3191
 C        -0.113295         0.089317         0.049893
 C         1.416695         0.053376         0.066402
 C         2.164343         1.135806        -0.893725
 C         3.658235         0.942255        -0.447678
 C         4.342369        -0.319689        -0.816199
 C         3.427964        -1.112918         0.080772
 O         1.980527        -1.256439        -0.418368
 C         3.353712         0.216158         0.943932
 O         1.956778         0.291649         1.349693
 H        -0.385797        -0.802701         0.539603
 H        -0.583959         1.014153         0.338530
 H        -0.469788         0.081170        -0.952148
 H         2.087506         0.721574        -1.969684
 H         1.508632         2.047523        -1.015719
 H         4.145360         1.945570        -0.427646
 H         4.407899        -0.693364        -1.912649
 H         5.289396        -0.265259        -0.313415
 H         3.843938        -2.150625         0.258838
 H         3.881634         0.310455         1.837127
