19
Iteration:  4623charge 0 multiplicity 1
 C        -0.058723        -0.043122        -0.079205
 C         1.525000         0.006214        -0.075304
 C         2.190476         1.196160        -0.804232
 C         3.645312         0.917819        -0.387142
 C         4.118544        -0.365140        -0.963168
 C         3.450924        -1.125448         0.069160
 O         2.068555        -1.183998        -0.210712
 C         3.284105         0.216326         0.971312
 O         1.938265         0.378932         1.325899
 H        -0.519999        -0.650983         0.611329
 H        -0.329072         0.965599         0.069296
 H        -0.253134        -0.407693        -1.073401
 H         1.956338         1.042837        -1.890261
 H         1.689438         2.030969        -0.432310
 H         4.349408         1.737554        -0.339626
 H         3.996942        -0.606829        -1.994207
 H         5.288820        -0.326040        -0.803708
 H         3.608483        -2.118833         0.480300
 H         3.958841         0.407633         1.839478
