19
Iteration:  3353charge 0 multiplicity 1
 C        -0.149245        -0.116767        -0.086965
 C         1.486480         0.149864         0.032177
 C         2.136775         1.150675        -0.906044
 C         3.658077         0.916770        -0.356485
 C         4.277981        -0.378510        -0.931219
 C         3.340390        -1.116571         0.153005
 O         2.004355        -1.151284        -0.342880
 C         3.428773         0.170836         0.995478
 O         2.002295         0.400651         1.357154
 H        -0.445542        -0.763958         0.781392
 H        -0.861192         0.792626        -0.180149
 H        -0.308138        -0.557626        -1.087632
 H         1.857467         1.038478        -2.000984
 H         1.567975         2.132199        -0.647628
 H         4.333757         1.792336        -0.473342
 H         4.158421        -0.746556        -1.991862
 H         5.378833        -0.386409        -0.779311
 H         3.675620        -2.016956         0.590729
 H         4.110433         0.241954         1.849360
