19
Iteration:  2989charge 0 multiplicity 1
 C        -0.024978        -0.103690        -0.136443
 C         1.469005         0.099568         0.013262
 C         2.120726         1.162943        -0.846522
 C         3.647691         0.901751        -0.390797
 C         4.141859        -0.384695        -0.938180
 C         3.383789        -1.128558         0.188435
 O         2.021411        -1.184333        -0.379268
 C         3.364530         0.222938         1.010461
 O         2.005487         0.425087         1.369047
 H        -0.497351        -0.975977         0.441904
 H        -0.473212         0.835072         0.107492
 H        -0.265096        -0.344754        -1.196807
 H         1.962658         1.172263        -1.944296
 H         1.970640         2.219282        -0.269855
 H         4.391792         1.682002        -0.355129
 H         3.984082        -0.643529        -1.990995
 H         5.300059        -0.530710        -0.821612
 H         3.702691        -2.087029         0.509673
 H         3.982848         0.408155         1.965777
