19
Iteration:  2256
 C        -0.102504        -0.006436        -0.060084
 C         1.469624         0.063160         0.014249
 C         2.160113         1.133270        -0.884294
 C         3.638409         0.904674        -0.424695
 C         4.315911        -0.370973        -0.958478
 C         3.379421        -1.109474         0.138600
 O         2.007479        -1.234247        -0.274654
 C         3.302964         0.268445         0.993151
 O         1.981518         0.346318         1.336828
 H        -0.470547        -0.985447         0.296038
 H        -0.386220         0.838496         0.510098
 H        -0.496566         0.052292        -1.065689
 H         1.932567         0.986293        -1.962694
 H         1.867202         2.221951        -0.630629
 H         4.117313         1.851044        -0.541569
 H         4.089343        -0.397873        -2.046621
 H         5.374806        -0.500882        -0.659084
 H         3.862505        -1.988310         0.519330
 H         4.039679         0.360389         1.852177
