19
Iteration:   107charge 0 multiplicity 1
 C        -0.125248         0.003252        -0.159582
 C         1.373770         0.075215         0.116283
 C         2.100798         1.076914        -0.846161
 C         3.612576         0.901108        -0.450923
 C         4.238025        -0.335227        -1.023907
 C         3.485085        -1.081664         0.137130
 O         2.076063        -1.404435        -0.172117
 C         3.376227         0.222770         1.004072
 O         2.025962         0.559157         1.353307
 H        -0.743688        -0.783179         0.226291
 H        -0.588407         1.055077         0.029813
 H        -0.085403        -0.034258        -1.247642
 H         1.954697         0.690412        -1.899121
 H         1.609629         2.065949        -0.944595
 H         4.110014         1.891390        -0.609342
 H         3.964849        -0.645735        -2.015870
 H         5.372524        -0.419198        -1.024535
 H         3.773829        -2.086978         0.510739
 H         3.991734         0.269316         1.851390
