19
Iteration:    12charge 0 multiplicity 1
 C         0.022190        -0.088045         0.084966
 C         1.449086         0.155747         0.015581
 C         2.219319         1.102430        -0.987553
 C         3.578686         0.937334        -0.505285
 C         4.243255        -0.395200        -0.831132
 C         3.344616        -1.082765         0.129649
 O         2.009297        -1.286744        -0.321644
 C         3.341575         0.304453         0.901005
 O         1.927023         0.412918         1.364103
 H        -0.134748        -0.766129         0.950587
 H        -0.519872         0.863221         0.239885
 H        -0.309017        -0.568444        -0.851697
 H         2.079802         0.760630        -2.008175
 H         1.924935         2.149479        -0.907998
 H         4.166831         1.832959        -0.562190
 H         4.083135        -0.763630        -1.856203
 H         5.274503        -0.487579        -0.516146
 H         3.598840        -1.943082         0.684029
 H         4.187297         0.525513         1.545865
