19
Iteration:  1889
 C        -0.043755        -0.015098        -0.144579
 C         1.468952         0.065421         0.016737
 C         2.147482         0.993588        -0.862866
 C         3.590621         0.995890        -0.400272
 C         4.172702        -0.366135        -0.940775
 C         3.414495        -1.083254         0.114994
 O         1.995841        -1.287150        -0.193875
 C         3.341384         0.252438         0.988302
 O         2.018445         0.440085         1.344462
 H        -0.449296        -0.871631         0.367154
 H        -0.493651         0.897922         0.212402
 H        -0.358036        -0.113855        -1.208864
 H         2.219182         0.961287        -1.999006
 H         1.833204         1.997076        -0.623330
 H         4.190158         1.903714        -0.647545
 H         4.171792        -0.498592        -1.989082
 H         5.305700        -0.487198        -0.864063
 H         3.868777        -1.975373         0.444130
 H         4.099470         0.450377         1.735112
