19
Iteration:  3209charge 0 multiplicity 1
 C        -0.054094        -0.030760         0.009582
 C         1.446677         0.123104        -0.020666
 C         2.211578         1.114311        -0.904222
 C         3.587517         0.967331        -0.330213
 C         4.233684        -0.368848        -0.936811
 C         3.371560        -1.136220         0.130226
 O         2.064168        -1.207826        -0.358254
 C         3.317167         0.184312         1.008810
 O         1.974058         0.346061         1.278347
 H        -0.301846        -0.975388         0.510820
 H        -0.418040         0.858848         0.612707
 H        -0.527254         0.140955        -0.995571
 H         2.015749         1.085719        -1.966062
 H         1.775896         2.169892        -0.668636
 H         4.161222         1.879782        -0.361446
 H         4.070237        -0.506066        -1.951494
 H         5.306757        -0.607501        -0.728368
 H         3.578311        -2.013080         0.654977
 H         4.081624         0.340250         1.772245
