19
Iteration:  1507
 C        -0.030903         0.136469         0.032350
 C         1.393920        -0.038035        -0.004699
 C         2.250036         1.049020        -0.942730
 C         3.633897         1.043484        -0.315489
 C         4.283167        -0.297253        -0.926193
 C         3.388025        -1.112980         0.114977
 O         2.008525        -1.292635        -0.315090
 C         3.315938         0.213584         0.963300
 O         1.948504         0.338963         1.256278
 H        -0.460774        -0.792287         0.622997
 H        -0.344398         1.087620         0.572361
 H        -0.629301        -0.032305        -0.855367
 H         2.038653         0.754196        -2.019816
 H         1.663731         1.924675        -0.813528
 H         4.244442         1.891461        -0.451925
 H         4.087854        -0.665879        -1.902769
 H         5.375037        -0.457319        -0.837385
 H         3.900596        -1.860614         0.718976
 H         3.725867         0.301845         1.930114
