19
Iteration:  2001charge 0 multiplicity 1
 C        -0.008962         0.067594        -0.158337
 C         1.408234         0.136734         0.060631
 C         2.141200         1.053993        -0.812665
 C         3.563790         0.977324        -0.450562
 C         4.201397        -0.327004        -1.020633
 C         3.381738        -1.121648         0.227046
 O         2.066637        -1.338892        -0.251346
 C         3.360012         0.202239         0.954817
 O         1.989018         0.377571         1.347013
 H        -0.445918        -0.801740         0.409881
 H        -0.298663         1.083996         0.035538
 H        -0.043424        -0.284034        -1.152904
 H         1.900385         0.934258        -1.927387
 H         1.707525         2.111944        -0.617689
 H         4.193077         1.796769        -0.409897
 H         3.941332        -0.603134        -2.083510
 H         5.323306        -0.400298        -0.859974
 H         4.019980        -1.903338         0.679589
 H         3.962973         0.398640         1.882370
