19
Iteration:  4223
 C        -0.051511         0.001760        -0.133699
 C         1.479317         0.045596         0.056219
 C         2.233750         1.058160        -0.884055
 C         3.640023         0.966512        -0.395283
 C         4.196540        -0.340769        -0.961103
 C         3.388751        -1.042324         0.100602
 O         1.985189        -1.220932        -0.285456
 C         3.360646         0.187653         1.024375
 O         1.961103         0.367394         1.379418
 H        -0.409883        -0.745951         0.537571
 H        -0.545881         0.921284         0.218343
 H        -0.258101        -0.191606        -1.204386
 H         1.739564         0.742371        -1.814116
 H         1.689150         2.070909        -0.648320
 H         4.112081         1.897737        -0.441119
 H         4.090544        -0.602499        -1.992299
 H         5.222463        -0.420190        -0.837380
 H         3.760917        -2.000788         0.402087
 H         4.211192         0.293203         1.682157
