19
Iteration:   495charge 0 multiplicity 1
 C        -0.078167        -0.089569        -0.059863
 C         1.403944         0.104488         0.009182
 C         2.204103         1.196167        -0.859855
 C         3.622888         0.913217        -0.442357
 C         4.188687        -0.381198        -0.987750
 C         3.441238        -1.211141         0.184656
 O         2.077535        -1.196896        -0.291798
 C         3.350532         0.219340         1.000064
 O         1.973336         0.432911         1.322535
 H        -0.316750        -0.980089         0.468715
 H        -0.757718         0.673374         0.558338
 H        -0.296348        -0.256829        -1.127484
 H         1.975842         1.214150        -1.971307
 H         1.841975         2.183024        -0.498009
 H         4.352410         1.830730        -0.496648
 H         3.799535        -0.649204        -1.976962
 H         5.256924        -0.505174        -1.018477
 H         3.652686        -2.102476         0.659135
 H         3.805366         0.628346         1.867691
