19
Iteration:  2460
 C         0.006131         0.069860         0.002472
 C         1.447737        -0.018665        -0.027050
 C         2.095279         1.096143        -0.850083
 C         3.585867         0.963870        -0.438365
 C         4.231424        -0.350376        -0.919192
 C         3.405000        -1.112716         0.154425
 O         2.067824        -1.357951        -0.301466
 C         3.330682         0.299594         0.949445
 O         1.978178         0.376385         1.281663
 H        -0.673407        -0.690987         0.477408
 H        -0.410722         0.978918         0.419869
 H        -0.446315         0.230242        -1.000716
 H         2.027226         0.943413        -1.922899
 H         1.847338         2.108447        -0.622573
 H         4.235628         1.792159        -0.424404
 H         4.263405        -0.436233        -2.065951
 H         5.254359        -0.213452        -0.618689
 H         3.707617        -2.009386         0.795718
 H         3.956707         0.446080         1.900870
