19
Iteration:  2028
 C        -0.092018        -0.073598        -0.088521
 C         1.423664         0.014108        -0.069930
 C         2.205421         1.167104        -0.857682
 C         3.614121         0.975013        -0.446940
 C         4.204700        -0.405474        -0.966280
 C         3.418117        -1.113982         0.172154
 O         2.021772        -1.194284        -0.180594
 C         3.324662         0.229673         1.009540
 O         2.002130         0.405673         1.294030
 H        -0.355798        -1.027706         0.327498
 H        -0.284820         0.855523         0.464921
 H        -0.320996        -0.080876        -1.200884
 H         2.077170         1.250648        -1.910975
 H         1.789422         2.117739        -0.490674
 H         4.412520         1.807331        -0.347120
 H         3.808033        -0.720135        -1.958470
 H         5.281967        -0.573036        -0.982362
 H         3.893606        -2.058846         0.410867
 H         3.852705         0.361124         1.932611
