19
Iteration:  3129charge 0 multiplicity 1
 C        -0.029508        -0.062802        -0.119402
 C         1.463921         0.101793        -0.022024
 C         2.226428         1.204345        -0.802793
 C         3.675915         0.912086        -0.353670
 C         4.175714        -0.352949        -1.005735
 C         3.369433        -1.085222         0.170048
 O         2.019146        -1.202762        -0.299447
 C         3.313960         0.230514         1.007780
 O         1.934616         0.318818         1.304599
 H        -0.328690        -0.604459         0.879536
 H        -0.480542         0.934185         0.027378
 H        -0.382839        -0.663707        -0.995464
 H         2.224740         1.048643        -1.870558
 H         1.800128         2.101329        -0.508818
 H         4.449462         1.717179        -0.329235
 H         3.773512        -0.400192        -2.026130
 H         5.267803        -0.628532        -1.048649
 H         3.663019        -2.120181         0.562582
 H         4.122385         0.214695         1.821471
