19
Iteration:  3271
 C        -0.034573         0.022337        -0.164157
 C         1.474188         0.081710         0.023315
 C         2.124438         1.126641        -0.817310
 C         3.602975         0.949136        -0.424756
 C         4.295475        -0.339644        -0.970988
 C         3.405260        -1.148328         0.098438
 O         2.001570        -1.195691        -0.283342
 C         3.326965         0.168018         1.023623
 O         1.990957         0.356381         1.380244
 H        -0.648652        -0.725019         0.409697
 H        -0.307583         0.927408         0.340256
 H        -0.329797        -0.083857        -1.206901
 H         1.940710         0.637844        -1.740930
 H         1.532311         1.944231        -0.640855
 H         4.033559         1.942428        -0.597658
 H         4.145271        -0.493536        -2.080652
 H         5.410900        -0.383939        -0.694550
 H         3.771302        -2.141219         0.554493
 H         3.959146         0.313485         1.976394
