19
Iteration:  3522
 C        -0.027684         0.022258        -0.180634
 C         1.444930         0.086065         0.080391
 C         2.125307         1.029625        -0.808670
 C         3.620408         0.978962        -0.402028
 C         4.228832        -0.296003        -1.002012
 C         3.432268        -1.126897         0.061087
 O         1.987298        -1.285580        -0.153788
 C         3.422606         0.146251         0.958335
 O         1.952893         0.447187         1.355569
 H        -0.590601        -0.607451         0.405352
 H        -0.483660         1.008665        -0.342050
 H        -0.174076        -0.328167        -1.184464
 H         2.086629         0.743710        -1.902525
 H         1.663011         2.092011        -0.784066
 H         4.222190         1.872939        -0.367454
 H         4.080761        -0.322607        -2.064202
 H         5.202863        -0.418943        -0.714513
 H         3.655687        -2.119943         0.521570
 H         4.056172         0.236712         1.822042
