19
Iteration:     1
 C        -0.047315        -0.034808         0.018771
 C         1.453775         0.057542         0.008851
 C         2.146296         1.062317        -0.944398
 C         3.606140         0.941751        -0.450975
 C         4.232104        -0.391773        -0.933049
 C         3.404882        -1.092374         0.164870
 O         2.035633        -1.233574        -0.225730
 C         3.340279         0.265481         0.951365
 O         1.983142         0.440647         1.276104
 H        -0.367475        -0.756377         0.773563
 H        -0.483367         0.940684         0.246813
 H        -0.408004        -0.363699        -0.958682
 H         2.023410         0.792068        -1.995850
 H         1.742019         2.065349        -0.782315
 H         4.187619         1.860791        -0.517316
 H         4.045869        -0.702862        -1.963859
 H         5.304501        -0.446096        -0.720349
 H         3.746259        -2.024746         0.616428
 H         3.997571         0.452928         1.796156
