19
Iteration:  2582charge 0 multiplicity 1
 C         0.017619         0.041344        -0.135061
 C         1.404563         0.092774         0.062344
 C         2.172725         1.043528        -0.915002
 C         3.598828         0.996878        -0.344998
 C         4.164287        -0.279062        -0.957678
 C         3.388366        -1.157001         0.105142
 O         2.027102        -1.268527        -0.184917
 C         3.412694         0.221720         0.920893
 O         1.983240         0.388519         1.331289
 H        -0.390897        -0.721827         0.621308
 H        -0.556332         1.005918        -0.056449
 H        -0.312291        -0.400506        -1.083120
 H         2.038357         0.638357        -1.884521
 H         1.701998         1.979166        -0.762900
 H         4.003356         1.988180        -0.459307
 H         4.004818        -0.689431        -1.986074
 H         5.186471        -0.530708        -0.619566
 H         3.873337        -2.115892         0.372276
 H         4.100316         0.235274         1.779980
