19
Iteration:  4640charge 0 multiplicity 1
 C        -0.045712        -0.030592        -0.086766
 C         1.446734         0.138950         0.055884
 C         2.104543         1.123014        -0.854442
 C         3.607491         0.981614        -0.401886
 C         4.290459        -0.375946        -0.940681
 C         3.358577        -1.120537         0.162160
 O         1.999528        -1.246448        -0.374602
 C         3.384692         0.191007         1.017878
 O         1.991116         0.363939         1.320272
 H        -0.334133        -0.751371         0.790172
 H        -0.620483         0.953004        -0.010735
 H        -0.234642        -0.518674        -1.113179
 H         2.051860         0.980649        -1.929757
 H         1.899877         2.202662        -0.468472
 H         4.111442         2.002561        -0.449321
 H         3.952058        -0.690859        -2.004236
 H         5.353976        -0.418675        -0.795866
 H         3.907427        -1.985789         0.629585
 H         4.020983         0.282354         1.879311
