19
Iteration:  3262
 C        -0.027701        -0.026927        -0.154394
 C         1.436154         0.044503         0.021713
 C         2.152656         1.146842        -0.838287
 C         3.645838         0.994641        -0.367119
 C         4.228693        -0.351637        -0.949600
 C         3.427390        -1.086624         0.103239
 O         1.949063        -1.200358        -0.231865
 C         3.342871         0.190095         0.964961
 O         2.009589         0.326141         1.345448
 H        -0.360499        -1.013319         0.268111
 H        -0.522679         0.938135         0.208078
 H        -0.283491         0.060421        -1.261739
 H         1.974364         0.900684        -1.865562
 H         1.667472         2.104479        -0.634788
 H         4.349373         1.819552        -0.443611
 H         3.943160        -0.670733        -1.941732
 H         5.381187        -0.412635        -0.726945
 H         3.621547        -2.042152         0.573803
 H         4.141302         0.199485         1.731758
