19
Iteration:   322charge 0 multiplicity 1
 C        -0.021110         0.155737         0.058269
 C         1.455529         0.047126        -0.045943
 C         2.154530         1.043156        -0.985816
 C         3.592801         0.950714        -0.405516
 C         4.254466        -0.288262        -0.957332
 C         3.434316        -1.040089         0.103460
 O         2.094397        -1.322994        -0.249750
 C         3.278042         0.198829         1.013166
 O         1.894430         0.292514         1.283883
 H        -0.252498        -0.740099         0.590929
 H        -0.332287         1.057744         0.747593
 H        -0.689271         0.084562        -0.789958
 H         2.105700         0.830609        -2.083286
 H         1.668145         2.008804        -0.726317
 H         4.317670         1.830311        -0.594587
 H         4.295173        -0.748396        -1.956295
 H         5.276026        -0.195264        -0.464211
 H         3.855541        -1.985531         0.589716
 H         3.871658         0.358930         1.857611
