19
Iteration:  3460
 C        -0.104387        -0.048913         0.070574
 C         1.446121         0.050968        -0.040908
 C         2.120183         1.225975        -0.932092
 C         3.616150         0.852660        -0.413602
 C         4.312343        -0.376207        -0.854475
 C         3.410780        -1.180081         0.202747
 O         2.059024        -1.184501        -0.428883
 C         3.281894         0.222724         0.920248
 O         1.962715         0.437751         1.332767
 H        -0.573654        -0.831786         0.770556
 H        -0.547940         0.880844         0.585440
 H        -0.476204        -0.306913        -0.938186
 H         2.066988         0.987206        -1.957688
 H         1.928920         2.209217        -0.670753
 H         4.193591         1.778527        -0.661142
 H         4.557309        -0.668413        -1.902587
 H         5.394360        -0.561841        -0.289635
 H         3.799126        -2.126449         0.545333
 H         4.031315         0.451665         1.705366
