19
Iteration:  4651
 C        -0.140654        -0.017694        -0.002964
 C         1.436713         0.153454         0.023872
 C         2.177852         1.141822        -0.902662
 C         3.636500         0.949126        -0.359757
 C         4.279570        -0.378868        -0.874326
 C         3.428887        -1.094624         0.082551
 O         2.014497        -1.254196        -0.403438
 C         3.333060         0.216541         0.918178
 O         2.009454         0.356794         1.400908
 H        -0.535396        -0.813501         0.745235
 H        -0.816374         0.897257        -0.021923
 H        -0.171638        -0.555479        -1.016883
 H         1.959890         0.795121        -1.914891
 H         1.599147         2.150956        -0.833941
 H         4.272282         1.881430        -0.248041
 H         4.246997        -0.739832        -1.955480
 H         5.295034        -0.322598        -0.638568
 H         3.586776        -2.006119         0.705580
 H         4.081659         0.263265         1.685622
