19
Iteration:  4697charge 0 multiplicity 1
 C        -0.127776         0.036049         0.065960
 C         1.478926         0.021549        -0.024999
 C         2.208265         1.167974        -0.896886
 C         3.641361         0.989763        -0.346432
 C         4.236759        -0.309443        -0.875206
 C         3.365831        -1.159640         0.126301
 O         2.057512        -1.331085        -0.366011
 C         3.313300         0.201312         0.906086
 O         1.939116         0.377930         1.273366
 H        -0.384452        -0.600572         0.887655
 H        -0.190445         1.061571         0.422683
 H        -0.661591        -0.302415        -0.901294
 H         2.329030         0.895129        -2.000599
 H         1.851239         2.219290        -0.864421
 H         4.128161         1.981859        -0.129255
 H         4.148865        -0.483478        -1.981402
 H         5.300489        -0.452231        -0.742741
 H         3.863313        -2.040830         0.647575
 H         3.987660         0.421659         1.765602
