19
Iteration:  3243
 C        -0.080705        -0.102548        -0.120846
 C         1.463578         0.148403         0.025485
 C         2.303106         1.250798        -0.855287
 C         3.657952         0.940580        -0.360836
 C         4.132199        -0.362251        -1.011706
 C         3.336966        -1.173708         0.129816
 O         2.046163        -1.310201        -0.260938
 C         3.364751         0.227733         1.020730
 O         1.972498         0.405764         1.306205
 H        -0.333998        -1.085138         0.219181
 H        -0.675293         0.650466         0.506294
 H        -0.437898        -0.043041        -1.195868
 H         2.174274         1.095842        -1.948641
 H         1.749266         2.144497        -0.349846
 H         4.112391         1.935444        -0.373938
 H         3.818395        -0.381629        -2.014629
 H         5.156858        -0.613386        -0.794547
 H         3.824383        -2.012249         0.502308
 H         3.905106         0.456982         1.883266
