19
Iteration:  4394charge 0 multiplicity 1
 C        -0.119676        -0.022194         0.028925
 C         1.405292         0.039851        -0.084146
 C         2.194130         1.105782        -0.913295
 C         3.603589         0.915392        -0.409421
 C         4.344889        -0.346097        -0.829410
 C         3.424591        -1.094180         0.094495
 O         1.940795        -1.187920        -0.357255
 C         3.330167         0.211827         0.993920
 O         2.055848         0.401056         1.343733
 H        -0.486556        -0.931495         0.523453
 H        -0.627314         0.925984         0.268766
 H        -0.729531        -0.162233        -0.936693
 H         1.875028         0.884828        -1.942244
 H         1.798560         2.030588        -0.668730
 H         4.225704         1.829603        -0.529070
 H         4.490938        -0.552570        -1.825313
 H         5.392217        -0.406556        -0.479675
 H         3.576154        -2.120353         0.534856
 H         4.066591         0.197247         1.781397
