19
Iteration:  2055charge 0 multiplicity 1
 C        -0.060961        -0.079522         0.043053
 C         1.407964         0.124865         0.041121
 C         2.229035         1.119999        -0.930180
 C         3.609405         0.956109        -0.376447
 C         4.258799        -0.395104        -0.858160
 C         3.361028        -1.151049         0.073487
 O         2.017636        -1.239296        -0.352704
 C         3.332490         0.281366         0.953488
 O         1.947672         0.456233         1.292806
 H        -0.069144        -1.134045         0.506085
 H        -0.482642         0.665480         0.736160
 H        -0.279014         0.045123        -1.014337
 H         2.214590         0.630609        -1.955197
 H         1.729441         2.130983        -0.893632
 H         4.331606         1.750038        -0.285805
 H         4.128946        -0.636834        -1.944462
 H         5.357772        -0.555256        -0.716118
 H         3.767133        -2.192388         0.351874
 H         3.919361         0.379503         1.900272
