19
Iteration:  4761charge 0 multiplicity 1
 C        -0.100818        -0.072958        -0.139530
 C         1.421289         0.089228        -0.088139
 C         2.197117         1.154289        -0.789340
 C         3.641393         0.973524        -0.414363
 C         4.222657        -0.349180        -0.948299
 C         3.412839        -1.106959         0.113047
 O         1.975290        -1.220780        -0.241760
 C         3.388362         0.190971         1.016925
 O         2.048931         0.389540         1.320588
 H        -0.503870        -0.855098         0.509721
 H        -0.678362         0.746716         0.389597
 H        -0.432395        -0.313645        -1.236909
 H         1.933622         0.863360        -1.831027
 H         1.743873         2.121974        -0.451057
 H         4.217837         1.911214        -0.254663
 H         3.863661        -0.584129        -2.024405
 H         5.240393        -0.549295        -0.751819
 H         3.690320        -2.075107         0.579669
 H         4.070663         0.316807         1.889953
