19
Iteration:  2975
 C        -0.026794        -0.077062        -0.146686
 C         1.461925         0.034049        -0.073574
 C         2.274158         1.252560        -0.781946
 C         3.638091         0.993121        -0.392842
 C         4.127310        -0.406832        -0.994919
 C         3.399994        -1.134108         0.114935
 O         2.043088        -1.233384        -0.212770
 C         3.321848         0.196728         1.053680
 O         1.946035         0.387811         1.304989
 H        -0.325295        -0.710952         0.704680
 H        -0.596231         0.887016         0.134973
 H        -0.320664        -0.419457        -1.156617
 H         2.122774         1.240265        -1.903498
 H         1.670066         2.202816        -0.450649
 H         4.275783         1.908346        -0.554565
 H         3.722049        -0.689428        -1.925609
 H         5.231488        -0.472627        -0.943263
 H         3.741548        -2.189464         0.513348
 H         4.018179         0.297569         1.849914
