19
Iteration:  1706
 C        -0.045588        -0.078456        -0.032430
 C         1.458502         0.106530        -0.004323
 C         2.131911         1.130745        -0.904603
 C         3.666320         0.957089        -0.396999
 C         4.203945        -0.380828        -0.974717
 C         3.413293        -1.123187         0.115551
 O         2.029273        -1.226418        -0.264740
 C         3.321720         0.179604         1.042296
 O         1.986686         0.486701         1.304689
 H        -0.387059        -0.930765         0.564194
 H        -0.687518         0.784938         0.201989
 H        -0.337029        -0.134723        -1.127899
 H         2.078678         0.816071        -2.000505
 H         1.777810         2.133373        -0.704984
 H         4.262769         1.850047        -0.489919
 H         3.961371        -0.831374        -1.899640
 H         5.203928        -0.725224        -0.672075
 H         3.790583        -2.119088         0.496026
 H         4.003445         0.328441         1.943250
