19
Iteration:  2044
 C        -0.015195        -0.075055        -0.016640
 C         1.484768         0.098172        -0.021066
 C         2.188876         1.108073        -0.876424
 C         3.696250         0.940759        -0.365768
 C         4.215158        -0.384446        -0.948232
 C         3.331275        -1.108183         0.134807
 O         1.990636        -1.253663        -0.302455
 C         3.355910         0.240373         0.984298
 O         1.938930         0.456699         1.284314
 H        -0.263440        -1.150744         0.333042
 H        -0.632506         0.560021         0.619995
 H        -0.599298        -0.162121        -0.925697
 H         2.123804         0.968145        -1.999397
 H         1.905295         2.188463        -0.747175
 H         4.216855         1.897616        -0.458127
 H         3.923519        -0.504020        -2.007717
 H         5.314138        -0.386715        -0.750458
 H         3.667864        -1.963713         0.799865
 H         4.107790         0.297482         1.817670
