19
Iteration:  3667
 C         0.016866         0.013448        -0.138104
 C         1.430330         0.048100        -0.012088
 C         2.153554         1.150311        -0.838055
 C         3.636703         0.969367        -0.406729
 C         4.191285        -0.372023        -0.983066
 C         3.430272        -1.172612         0.128028
 O         2.033171        -1.300616        -0.171342
 C         3.317963         0.277856         0.991814
 O         1.962738         0.365616         1.283875
 H        -0.534190        -0.642591         0.580692
 H        -0.309373         1.000902         0.014772
 H        -0.425843        -0.307951        -1.019803
 H         2.061172         0.893569        -1.921317
 H         1.718111         2.235574        -0.518833
 H         4.264121         1.889517        -0.264550
 H         3.790836        -0.519417        -1.911773
 H         5.255611        -0.297943        -1.068831
 H         3.916628        -2.006115         0.609954
 H         3.927972         0.560890         1.885040
