19
Iteration:  3833
 C        -0.124005        -0.047305         0.046571
 C         1.458804         0.045634        -0.019999
 C         2.158630         1.211303        -0.881150
 C         3.653418         0.981535        -0.411296
 C         4.253770        -0.451907        -0.930920
 C         3.465200        -1.120668         0.171963
 O         2.041542        -1.210620        -0.349610
 C         3.263679         0.243352         0.968215
 O         1.974458         0.332908         1.260236
 H        -0.113001        -0.920390         0.581477
 H        -0.391355         0.929302         0.400026
 H        -0.476609        -0.189342        -0.996159
 H         2.166379         1.074116        -1.997538
 H         1.987359         2.415009        -0.507194
 H         4.140863         1.969072        -0.311403
 H         3.859266        -0.602673        -1.861432
 H         5.296499        -0.548078        -0.647131
 H         3.639699        -2.088602         0.641642
 H         3.802759         0.484275         1.885911
