19
Iteration:   822
 C        -0.005021        -0.005013         0.020445
 C         1.504112         0.095604        -0.067784
 C         2.151111         1.109270        -0.932395
 C         3.600000         0.905018        -0.399735
 C         4.245571        -0.339697        -0.873275
 C         3.425898        -1.154186         0.152374
 O         2.000257        -1.218770        -0.291548
 C         3.268726         0.177497         1.007654
 O         1.939522         0.412878         1.238399
 H        -0.171532        -0.473853         1.020488
 H        -0.451205         0.959746         0.194203
 H        -0.541059        -0.630241        -0.747139
 H         2.065908         0.932620        -2.069164
 H         1.871631         2.102141        -0.654172
 H         4.333775         1.799268        -0.501626
 H         4.201686        -0.674913        -1.913543
 H         5.329555        -0.115095        -0.603239
 H         3.808679        -2.130135         0.467263
 H         3.948637         0.488393         1.850307
