19
Iteration:  1987
 C        -0.057952         0.054468        -0.117801
 C         1.485337        -0.008895         0.077940
 C         2.142449         1.048018        -0.908905
 C         3.612022         0.972092        -0.407914
 C         4.237039        -0.322880        -0.928582
 C         3.431122        -1.074298         0.083123
 O         2.004560        -1.241534        -0.233200
 C         3.341381         0.218519         0.977749
 O         1.993551         0.370593         1.360066
 H        -0.651233        -0.511980         0.687001
 H        -0.438780         1.093929        -0.143644
 H        -0.235703        -0.361473        -1.126994
 H         1.985395         0.670904        -1.921242
 H         1.692940         1.974642        -0.773737
 H         4.086448         2.018709        -0.480512
 H         3.996610        -0.616251        -1.895978
 H         5.342917        -0.389672        -0.873496
 H         3.604449        -2.023628         0.484591
 H         4.075175         0.261171         1.798936
