19
Iteration:   491
 C        -0.085066        -0.074003        -0.027500
 C         1.395752         0.101007        -0.000364
 C         2.185541         1.193087        -0.856929
 C         3.631282         0.912252        -0.408624
 C         4.230517        -0.366281        -1.032502
 C         3.463986        -1.193222         0.215461
 O         2.071032        -1.177335        -0.271830
 C         3.327105         0.165783         0.969930
 O         1.952286         0.451649         1.276277
 H        -0.285162        -1.051337         0.435305
 H        -0.703531         0.749532         0.430417
 H        -0.342546        -0.287438        -1.043895
 H         1.921191         1.150678        -1.886802
 H         1.870587         2.169360        -0.425476
 H         4.319809         1.710695        -0.483311
 H         3.807361        -0.696605        -2.012870
 H         5.331167        -0.448173        -1.043555
 H         3.792007        -2.155587         0.759699
 H         3.851030         0.437884         1.969327
