19
Iteration:  1854
 C        -0.015374         0.018609        -0.088866
 C         1.438330         0.070276        -0.059336
 C         2.142404         1.080715        -0.922991
 C         3.624964         0.958934        -0.383143
 C         4.203588        -0.439877        -0.992316
 C         3.506800        -1.067505         0.137211
 O         2.053225        -1.278814        -0.157876
 C         3.294582         0.250327         0.962551
 O         1.923994         0.367402         1.337675
 H        -0.390210        -0.793916         0.480313
 H        -0.302305         0.954841         0.533659
 H        -0.321922         0.162685        -1.175791
 H         2.272668         1.080600        -1.996667
 H         1.640011         1.985809        -0.686887
 H         4.042997         2.068963        -0.449893
 H         3.719561        -0.523457        -1.977872
 H         5.277650        -0.512040        -0.815629
 H         3.886587        -1.972482         0.640406
 H         3.918384         0.492990         1.822807
