19
Iteration:  3701
 C        -0.112488        -0.153674        -0.020112
 C         1.505856         0.162360         0.042643
 C         2.176787         1.090433        -0.893854
 C         3.667326         0.973917        -0.346278
 C         4.311444        -0.392606        -0.912850
 C         3.354004        -1.149046         0.104347
 O         1.954124        -1.171531        -0.333013
 C         3.312451         0.242301         0.953869
 O         2.003924         0.423339         1.302536
 H        -0.475422        -0.749741         0.853541
 H        -0.697645         0.747819         0.054276
 H        -0.329103        -0.618862        -0.994372
 H         2.090600         0.699181        -1.930742
 H         1.764659         2.187490        -0.836559
 H         4.218951         1.942177        -0.444878
 H         4.290813        -0.530962        -1.935488
 H         5.362527        -0.445789        -0.620377
 H         3.559221        -2.112390         0.551629
 H         4.023776         0.399550         1.742393
