19
Iteration:  1484charge 0 multiplicity 1
 C        -0.053664         0.037432        -0.094926
 C         1.421883         0.068189         0.010592
 C         2.190001         1.141459        -0.902851
 C         3.568052         0.917378        -0.422730
 C         4.248591        -0.326401        -0.965036
 C         3.410190        -1.207454         0.130906
 O         2.047883        -1.232462        -0.257070
 C         3.379185         0.236347         1.043765
 O         1.960173         0.374182         1.346161
 H        -0.517463        -0.966096         0.289542
 H        -0.454208         0.927618         0.421568
 H        -0.392935         0.058345        -1.116949
 H         1.895163         0.882451        -1.954210
 H         1.688630         2.093592        -0.698117
 H         4.087385         1.870699        -0.445533
 H         4.129357        -0.443739        -2.034654
 H         5.292465        -0.576959        -0.804698
 H         3.873438        -2.086364         0.521545
 H         4.022154         0.395030         1.888793
