19
Iteration:  4818charge 0 multiplicity 1
 C        -0.088742         0.063338         0.059551
 C         1.410714         0.020305        -0.043676
 C         2.173883         1.055348        -0.928518
 C         3.563625         0.937005        -0.373815
 C         4.401466        -0.322013        -0.907930
 C         3.410716        -1.079067         0.087462
 O         2.004152        -1.197913        -0.347926
 C         3.325917         0.189829         0.937733
 O         1.932479         0.343412         1.373542
 H        -0.434163        -0.700794         0.706338
 H        -0.402198         1.121145         0.144985
 H        -0.309387        -0.332020        -0.992806
 H         1.998007         0.920713        -2.048645
 H         1.744594         2.013148        -0.697966
 H         4.219938         1.763957        -0.190535
 H         4.391333        -0.446844        -1.989979
 H         5.340773        -0.482313        -0.604594
 H         3.707306        -1.974017         0.663873
 H         4.104248         0.237896         1.713735
