19
Iteration:  4285
 C        -0.125102        -0.026604         0.062737
 C         1.470996         0.091661         0.014979
 C         2.121708         1.126575        -0.905442
 C         3.610619         0.974078        -0.375237
 C         4.321732        -0.393709        -0.881166
 C         3.349804        -1.093356         0.196352
 O         2.024935        -1.202598        -0.481973
 C         3.399189         0.255731         0.957120
 O         1.990312         0.327189         1.296002
 H        -0.489267        -0.679630         0.874475
 H        -0.576393         0.973081         0.114939
 H        -0.421234        -0.479490        -0.937524
 H         2.021957         0.808136        -1.947064
 H         1.866257         2.103170        -0.712321
 H         4.338792         1.816479        -0.383055
 H         4.095597        -0.815065        -1.949397
 H         5.354975        -0.509442        -0.366568
 H         3.567983        -2.073024         0.687286
 H         3.933369         0.478802         1.839828
