19
Iteration:   945charge 0 multiplicity 1
 C        -0.049242        -0.034699        -0.092050
 C         1.471608         0.055968        -0.001647
 C         2.127345         1.071006        -0.922762
 C         3.596528         0.945153        -0.452588
 C         4.229435        -0.349312        -0.876838
 C         3.390311        -1.109079         0.139402
 O         2.007686        -1.217300        -0.278929
 C         3.363801         0.237805         1.017501
 O         2.025723         0.434404         1.330234
 H        -0.359203        -0.853136         0.583368
 H        -0.551724         0.886401         0.211737
 H        -0.280469        -0.378294        -1.072492
 H         1.949202         0.876883        -1.989151
 H         1.824399         2.097054        -0.582222
 H         4.232591         1.906319        -0.658003
 H         4.171131        -0.809007        -1.889489
 H         5.290427        -0.397774        -0.519510
 H         3.410833        -2.079945         0.547483
 H         3.944909         0.306585         1.900699
