19
Iteration:  4251charge 0 multiplicity 1
 C        -0.101283         0.020455         0.059801
 C         1.499944         0.017266        -0.035275
 C         2.183829         1.187778        -0.971425
 C         3.612664         0.968614        -0.282833
 C         4.282788        -0.348140        -0.945339
 C         3.404922        -1.103783         0.078117
 O         2.006666        -1.285274        -0.267919
 C         3.344648         0.178489         1.017408
 O         1.913512         0.385286         1.230196
 H        -0.397729        -0.648974         0.939895
 H        -0.341978         1.095159         0.144241
 H        -0.520411        -0.329069        -0.909116
 H         1.996034         0.925537        -2.020194
 H         1.667423         2.072265        -0.805166
 H         4.202895         1.959599        -0.127114
 H         4.389370        -0.610265        -2.093114
 H         5.462358        -0.469553        -0.727438
 H         3.746520        -2.138427         0.391282
 H         4.060448         0.320126         1.848284
