19
Iteration:  1096
 C        -0.072419        -0.088175         0.049486
 C         1.431155         0.103421        -0.002066
 C         2.185183         1.249823        -1.007840
 C         3.643765         0.901872        -0.465070
 C         4.401213        -0.387524        -0.897281
 C         3.334835        -1.076944         0.163331
 O         2.004169        -1.181972        -0.303391
 C         3.294712         0.148652         1.009035
 O         1.940007         0.376781         1.286075
 H        -0.077037        -1.119491         0.623221
 H        -0.461575         0.795659         0.706839
 H        -0.552737        -0.071978        -0.927724
 H         1.990991         0.999770        -2.104286
 H         1.686614         2.195072        -0.801830
 H         4.165491         1.891842        -0.240339
 H         4.223600        -0.767406        -1.903329
 H         5.490780        -0.522475        -0.617742
 H         3.596623        -2.055061         0.586249
 H         3.929301         0.154528         1.840933
