19
Iteration:   314
 C        -0.059111         0.133948         0.112640
 C         1.427898         0.040936        -0.015615
 C         2.149673         1.053523        -0.959868
 C         3.621567         0.998166        -0.418869
 C         4.305982        -0.319033        -0.883180
 C         3.435003        -1.083529         0.133231
 O         2.116356        -1.342424        -0.309063
 C         3.317481         0.188174         0.943331
 O         1.863631         0.344523         1.249334
 H        -0.430098        -0.703038         0.811880
 H        -0.291612         1.010629         0.610850
 H        -0.651693         0.248652        -0.837002
 H         2.043535         0.764417        -2.025322
 H         1.676874         2.032396        -0.968470
 H         3.965775         1.993048        -0.318002
 H         4.142001        -0.492339        -1.954823
 H         5.413375        -0.458573        -0.712049
 H         3.852126        -2.036810         0.675217
 H         3.941048         0.281821         1.813249
