19
Iteration:  2565charge 0 multiplicity 1
 C        -0.068619        -0.001794        -0.155795
 C         1.515470         0.011196         0.043053
 C         2.107771         1.090872        -0.856283
 C         3.592292         0.959672        -0.458926
 C         4.192315        -0.373305        -1.007413
 C         3.444099        -1.045707         0.154490
 O         1.995889        -1.242612        -0.246584
 C         3.339717         0.221362         1.044593
 O         2.045741         0.382955         1.395006
 H        -0.758513        -0.535745         0.455199
 H        -0.345702         1.089294        -0.221997
 H        -0.258817        -0.547558        -1.118272
 H         2.089579         0.783758        -1.970042
 H         1.720660         2.128327        -0.557132
 H         4.406541         1.789845        -0.532612
 H         3.834411        -0.504894        -2.001934
 H         5.308603        -0.419474        -1.015110
 H         3.661628        -2.005763         0.586268
 H         3.923525         0.454112         1.930111
