19
Iteration:  4993
 C        -0.167807        -0.039650        -0.093968
 C         1.416044         0.077777         0.026273
 C         2.147998         1.218406        -0.883652
 C         3.649211         0.939553        -0.391953
 C         4.334892        -0.437463        -0.940111
 C         3.418986        -1.052998         0.097493
 O         2.021958        -1.178896        -0.299198
 C         3.352525         0.134296         1.040263
 O         2.006362         0.367074         1.313581
 H        -0.469540        -0.797738         0.667095
 H        -0.718678         0.864951         0.253232
 H        -0.320379        -0.310126        -1.088159
 H         1.862175         0.945858        -1.931765
 H         1.687210         2.121936        -0.582883
 H         4.240889         1.891562        -0.418069
 H         4.111621        -0.679930        -2.068419
 H         5.399535        -0.437788        -0.720160
 H         3.636994        -2.040201         0.546564
 H         4.020132         0.180681         1.944792
