19
Iteration:  1250
 C        -0.083683         0.116957         0.123409
 C         1.385897        -0.007202        -0.054951
 C         2.147131         1.078222        -0.964199
 C         3.627940         0.966485        -0.315885
 C         4.337480        -0.305866        -0.865405
 C         3.445573        -1.173008         0.047771
 O         2.083314        -1.283171        -0.323711
 C         3.287798         0.187222         1.030282
 O         1.908140         0.401894         1.212106
 H        -0.445511        -0.661107         0.734982
 H        -0.311436         1.200138         0.538568
 H        -0.557416         0.050719        -0.891489
 H         1.943942         0.861928        -2.040995
 H         1.758970         2.138220        -0.763595
 H         4.213973         1.933026        -0.237959
 H         4.214192        -0.722066        -1.904456
 H         5.408131        -0.367279        -0.655574
 H         3.805934        -2.171753         0.248199
 H         4.048618         0.307132         1.826595
