19
Iteration:  2083charge 0 multiplicity 1
 C        -0.114618         0.053443         0.068666
 C         1.366404         0.079696        -0.034259
 C         2.153049         1.055479        -0.959362
 C         3.566602         0.905819        -0.439514
 C         4.398380        -0.321361        -0.835272
 C         3.399049        -1.073694         0.145511
 O         2.031188        -1.215022        -0.348118
 C         3.365414         0.202508         0.937540
 O         1.951849         0.335655         1.293597
 H        -0.157844        -0.736834         0.795662
 H        -0.374453         0.937394         0.608080
 H        -0.543907         0.125062        -0.924585
 H         2.106287         0.704780        -1.955808
 H         1.687753         2.020548        -0.759407
 H         4.245919         1.841077        -0.463806
 H         4.387253        -0.555616        -1.899196
 H         5.439388        -0.313147        -0.469072
 H         3.608789        -2.018442         0.584593
 H         3.978913         0.068123         1.834352
