19
Iteration:   412charge 0 multiplicity 1
 C        -0.110292         0.046490         0.042864
 C         1.413727         0.038556        -0.006822
 C         2.182811         1.102551        -0.848907
 C         3.599741         0.927505        -0.405086
 C         4.285596        -0.307125        -0.916166
 C         3.443309        -1.133916         0.091383
 O         2.056273        -1.297987        -0.365894
 C         3.365340         0.211015         1.029144
 O         1.920277         0.408656         1.265654
 H        -0.400408        -0.479763         1.058154
 H        -0.416397         1.030299         0.011760
 H        -0.542011        -0.445090        -0.892255
 H         2.039975         1.025597        -1.942271
 H         1.806170         2.088292        -0.565734
 H         4.221656         1.800924        -0.536808
 H         4.066134        -0.606421        -1.965775
 H         5.416248        -0.223928        -0.768859
 H         3.836885        -2.182384         0.488460
 H         3.905248         0.423953         1.961312
