19
Iteration:   963charge 0 multiplicity 1
 C        -0.084848        -0.143693         0.036450
 C         1.367212         0.100456        -0.076155
 C         2.200675         1.148723        -0.897119
 C         3.676615         0.944489        -0.384969
 C         4.296392        -0.453667        -0.850968
 C         3.332475        -1.130692         0.142341
 O         2.013645        -1.195956        -0.381401
 C         3.327326         0.248867         0.953638
 O         1.985521         0.490247         1.308939
 H        -0.355405        -0.786662         1.006186
 H        -0.507593         0.797274         0.282583
 H        -0.404882        -0.646122        -0.938224
 H         2.149708         0.846694        -2.016722
 H         1.787149         2.078722        -0.683391
 H         4.195061         1.895686        -0.355379
 H         4.211675        -0.636488        -1.911377
 H         5.353838        -0.511807        -0.495662
 H         3.769439        -2.050452         0.604804
 H         4.142722         0.562736         1.667212
