19
Iteration:    36charge 0 multiplicity 1
 C        -0.121078        -0.140479         0.177575
 C         1.410229         0.095306        -0.034082
 C         2.115366         1.087503        -0.969305
 C         3.638473         0.911283        -0.462291
 C         4.342285        -0.443038        -0.833361
 C         3.385021        -1.100871         0.144230
 O         2.032028        -1.084518        -0.340188
 C         3.344882         0.205208         0.986004
 O         1.996466         0.498268         1.191196
 H        -0.254212        -0.707792         1.161314
 H        -0.655599         0.717591         0.163000
 H        -0.476225        -0.791034        -0.671797
 H         2.001709         0.782811        -1.979513
 H         1.749420         2.103323        -0.904578
 H         4.226522         1.782289        -0.519225
 H         4.391319        -0.829594        -1.874471
 H         5.373760        -0.488671        -0.553478
 H         3.554323        -2.087672         0.615872
 H         3.973151         0.358602         1.918272
