19
Iteration:   123
 C        -0.060583        -0.047899        -0.061128
 C         1.432041         0.106869         0.048327
 C         2.166483         1.048740        -0.868930
 C         3.650846         0.968106        -0.445739
 C         4.226771        -0.416455        -0.951036
 C         3.387841        -1.138757         0.115516
 O         2.053152        -1.293603        -0.203008
 C         3.380487         0.271625         0.905868
 O         1.930141         0.515446         1.299192
 H        -0.300431        -1.017042         0.462799
 H        -0.648693         0.705360         0.389688
 H        -0.364495        -0.133714        -1.123549
 H         1.900639         0.976476        -1.908691
 H         1.809215         2.017848        -0.477902
 H         4.210354         1.891912        -0.507068
 H         4.049065        -0.697284        -2.018337
 H         5.237614        -0.494837        -0.627646
 H         3.881422        -1.972880         0.604874
 H         4.008234         0.497296         1.837826
