19
Iteration:  2395charge 0 multiplicity 1
 C        -0.075182        -0.122542        -0.034264
 C         1.444019         0.079374        -0.056272
 C         2.180320         1.176512        -0.860512
 C         3.630100         0.922213        -0.380073
 C         4.285535        -0.372687        -0.955221
 C         3.329237        -1.082534         0.090323
 O         2.012199        -1.203202        -0.250162
 C         3.318279         0.192173         0.969750
 O         2.012190         0.454170         1.311676
 H        -0.162736        -0.986631         0.699066
 H        -0.414060         0.914772         0.175856
 H        -0.445660        -0.423333        -1.074236
 H         2.002466         0.873625        -1.851572
 H         1.663028         1.984048        -0.435660
 H         4.197638         1.826181        -0.358700
 H         4.120971        -0.589366        -2.058832
 H         5.319823        -0.431502        -0.705455
 H         3.684529        -2.085945         0.533058
 H         4.017549         0.225633         1.891190
