19
Iteration:  2266
 C        -0.027220        -0.046393        -0.075852
 C         1.374988         0.006122         0.035787
 C         2.190255         1.189977        -0.854772
 C         3.615530         0.960559        -0.423133
 C         4.242506        -0.420969        -0.946725
 C         3.423529        -1.093970         0.186693
 O         2.041193        -1.150611        -0.292318
 C         3.333209         0.205679         0.915181
 O         1.972071         0.364568         1.325821
 H        -0.470921        -0.960651         0.357060
 H        -0.499862         0.754891         0.478118
 H        -0.209146         0.039753        -1.168231
 H         1.968357         1.003189        -1.907919
 H         1.737594         2.195489        -0.560505
 H         4.226621         1.787703        -0.260166
 H         3.954946        -0.978873        -1.878991
 H         5.316191        -0.427719        -0.979887
 H         3.676834        -2.090418         0.626238
 H         3.977049         0.470385         1.797542
