19
Iteration:   672
 C        -0.113241         0.061980        -0.090885
 C         1.383303        -0.028523         0.005756
 C         2.173341         1.028128        -0.855407
 C         3.596236         0.987663        -0.372371
 C         4.330164        -0.413162        -0.965170
 C         3.404506        -1.118770         0.074526
 O         2.063658        -1.254288        -0.267539
 C         3.331350         0.293091         0.892221
 O         1.955621         0.400794         1.416216
 H        -0.583819        -0.638407         0.767085
 H        -0.148886         1.064735         0.149861
 H        -0.646554         0.126153        -1.094506
 H         2.166530         0.731669        -1.982569
 H         1.641221         1.997476        -0.718309
 H         4.159340         2.022591        -0.362787
 H         4.155217        -0.629186        -1.999532
 H         5.422159        -0.513113        -0.721093
 H         3.896398        -1.847783         0.680332
 H         4.082258         0.438246         1.726237
