19
Iteration:   910charge 0 multiplicity 1
 C        -0.074306         0.122765        -0.146798
 C         1.403253        -0.030451        -0.022006
 C         2.187230         1.012207        -0.931193
 C         3.623548         0.969320        -0.368052
 C         4.176537        -0.332939        -0.987090
 C         3.422691        -1.072591         0.161330
 O         2.084574        -1.325645        -0.154000
 C         3.366338         0.263471         1.048819
 O         1.967815         0.365975         1.305212
 H        -0.577848        -0.776417         0.432532
 H        -0.358573         1.029674         0.275349
 H        -0.383425         0.189236        -1.214771
 H         2.068106         0.973509        -2.093373
 H         1.731117         1.926179        -0.647485
 H         4.161265         1.981213        -0.595164
 H         3.742724        -0.745234        -1.888539
 H         5.313974        -0.278956        -1.044051
 H         3.897527        -1.956473         0.550345
 H         4.027839         0.648705         1.839105
