19
Iteration:   761charge 0 multiplicity 1
 C         0.018660        -0.044503        -0.110584
 C         1.474571         0.122231         0.032551
 C         2.095827         1.176629        -0.986133
 C         3.562134         0.969749        -0.414958
 C         4.205422        -0.440662        -0.918617
 C         3.427846        -1.092246         0.107835
 O         2.078465        -1.229586        -0.177355
 C         3.309987         0.156789         0.970376
 O         1.994776         0.398504         1.335482
 H        -0.542196        -0.821122         0.581024
 H        -0.383601         1.001288         0.167674
 H        -0.301642        -0.142343        -1.129682
 H         1.912119         1.145495        -2.061121
 H         1.478063         2.042570        -0.585648
 H         4.306305         1.796239        -0.336076
 H         4.057716        -0.758678        -1.945096
 H         5.266403        -0.526360        -0.678207
 H         3.707227        -2.070551         0.508713
 H         3.920524         0.282292         1.870843
