19
Iteration:  4487
 C        -0.077032         0.011693        -0.170539
 C         1.472986         0.011436         0.026659
 C         2.127293         1.089980        -0.844316
 C         3.694668         0.996049        -0.418657
 C         4.224112        -0.338167        -0.948965
 C         3.377352        -1.155570         0.091828
 O         1.961947        -1.239723        -0.270125
 C         3.397263         0.246284         0.998803
 O         1.988523         0.382784         1.415313
 H        -0.516571        -0.729162         0.503024
 H        -0.619654         0.921128        -0.045763
 H        -0.350397        -0.435359        -1.080996
 H         1.937589         0.966214        -1.866268
 H         1.923662         2.132897        -0.648034
 H         4.338629         1.890280        -0.419044
 H         4.082771        -0.535902        -2.096950
 H         5.293629        -0.457788        -0.843626
 H         3.780235        -1.983194         0.590603
 H         4.043706         0.426668         1.857313
