19
Iteration:  1997charge 0 multiplicity 1
 C         0.020792         0.072971        -0.143471
 C         1.422438         0.093412         0.082061
 C         2.116641         1.032821        -0.832150
 C         3.577382         0.980006        -0.485564
 C         4.228980        -0.336663        -0.987889
 C         3.376807        -1.093280         0.187850
 O         2.045990        -1.313904        -0.251407
 C         3.330567         0.199636         0.973304
 O         2.010116         0.373817         1.345384
 H        -0.582024        -0.683075         0.484456
 H        -0.491567         1.066172        -0.068305
 H        -0.150586        -0.288088        -1.198457
 H         2.045381         0.849854        -1.880887
 H         1.817656         1.987901        -0.660777
 H         4.194112         1.971331        -0.263130
 H         3.878615        -0.529318        -1.943454
 H         5.316256        -0.285193        -0.896265
 H         3.921346        -1.885833         0.636071
 H         3.992065         0.272822         1.846948
