19
Iteration:  2572
 C        -0.056915         0.006843        -0.162143
 C         1.504356         0.034780         0.038515
 C         2.137357         1.027031        -0.862737
 C         3.591394         1.004466        -0.442884
 C         4.169596        -0.359798        -0.971346
 C         3.380946        -1.084264         0.114931
 O         2.000595        -1.243026        -0.223552
 C         3.416340         0.207794         1.068087
 O         2.013258         0.384452         1.359161
 H        -0.609000        -0.558355         0.673063
 H        -0.426043         1.106780        -0.181852
 H        -0.053197        -0.395200        -1.194959
 H         2.012586         0.844354        -1.923973
 H         1.677324         1.989771        -0.769919
 H         4.127907         1.992447        -0.440235
 H         3.878711        -0.525696        -2.020682
 H         5.280189        -0.318715        -0.931627
 H         3.705222        -2.042894         0.520628
 H         4.190467         0.425408         1.804555
