19
Iteration:   437charge 0 multiplicity 1
 C        -0.085240         0.112926         0.039919
 C         1.391232         0.060287         0.040437
 C         2.104426         1.017011        -0.967912
 C         3.549894         0.991060        -0.352053
 C         4.398284        -0.298937        -0.901442
 C         3.412446        -1.054586         0.036832
 O         2.024679        -1.223057        -0.314656
 C         3.344975         0.139878         0.941852
 O         1.989813         0.291625         1.338981
 H        -0.403773        -0.396977         0.958460
 H        -0.340836         1.195324        -0.065119
 H        -0.497419        -0.364656        -0.825371
 H         2.094720         0.510828        -1.912028
 H         1.673947         2.035707        -1.101033
 H         4.017526         1.943726        -0.342526
 H         4.366882        -0.647280        -1.955270
 H         5.384395        -0.460071        -0.474692
 H         3.778480        -2.014210         0.498891
 H         4.022509         0.313535         1.862252
