19
Iteration:   354
 C        -0.110223        -0.038062        -0.131239
 C         1.440002         0.094289         0.106400
 C         2.098811         1.096267        -0.843899
 C         3.633769         0.980060        -0.347521
 C         4.232771        -0.356468        -0.967825
 C         3.357379        -1.090062         0.130014
 O         2.065077        -1.296059        -0.298310
 C         3.394383         0.177480         0.910655
 O         2.005306         0.469468         1.336842
 H        -0.367331        -0.947273         0.356053
 H        -0.716029         0.862624         0.392757
 H        -0.160729        -0.129340        -1.223938
 H         1.962811         0.839684        -1.926754
 H         1.661505         2.087872        -0.590452
 H         4.416632         1.842932        -0.358765
 H         3.979118        -0.674595        -2.001800
 H         5.351488        -0.477601        -0.872658
 H         3.832197        -1.922783         0.698316
 H         4.073283         0.211124         1.719456
