19
Iteration:  2713
 C        -0.067812         0.061847        -0.107365
 C         1.481298         0.022630        -0.001220
 C         2.183476         1.103629        -0.870968
 C         3.576796         0.948245        -0.354293
 C         4.130102        -0.416466        -0.967069
 C         3.468661        -1.107123         0.131343
 O         2.073577        -1.240035        -0.250712
 C         3.385777         0.266200         1.008013
 O         1.948807         0.353071         1.305901
 H        -0.516089        -0.394012         0.756421
 H        -0.296267         1.170040        -0.040557
 H        -0.141438        -0.437286        -1.058584
 H         1.957122         0.902509        -1.943120
 H         1.521803         1.943401        -0.650104
 H         4.153630         1.851277        -0.607199
 H         3.894777        -0.550935        -2.063451
 H         5.268806        -0.466191        -0.883940
 H         3.786105        -2.024372         0.672492
 H         3.838867         0.472343         1.962034
