19
Iteration:  3945
 C        -0.053675        -0.099816        -0.109144
 C         1.391669         0.096720         0.013728
 C         2.206842         1.147442        -0.802873
 C         3.669751         0.987691        -0.429064
 C         4.201574        -0.370242        -0.956020
 C         3.380071        -1.125872         0.113533
 O         2.003851        -1.179272        -0.246856
 C         3.408741         0.236719         1.007376
 O         1.999794         0.358002         1.307175
 H        -0.247504        -0.976821         0.535434
 H        -0.705570         0.756175         0.085676
 H        -0.352719        -0.382155        -1.133591
 H         1.919644         1.176154        -1.872592
 H         1.691049         2.185633        -0.472118
 H         4.304768         1.793244        -0.590482
 H         3.901253        -0.690036        -1.951941
 H         5.262593        -0.507864        -0.880582
 H         3.523577        -2.200415         0.374983
 H         3.911515         0.345378         1.978592
