19
Iteration:  2888charge 0 multiplicity 1
 C        -0.117658        -0.040751         0.086926
 C         1.473002         0.077347        -0.079731
 C         2.170863         1.151252        -0.895655
 C         3.652313         0.915514        -0.349039
 C         4.323252        -0.406922        -0.907951
 C         3.383991        -1.068948         0.115151
 O         2.040107        -1.243186        -0.382699
 C         3.284186         0.222325         1.039774
 O         1.929890         0.424746         1.231922
 H        -0.100705        -0.819846         0.826289
 H        -0.539345         0.963416         0.419478
 H        -0.733515        -0.407859        -0.761280
 H         2.076386         1.039139        -2.024054
 H         1.667185         2.184850        -0.507874
 H         4.378852         1.750864        -0.383706
 H         4.242003        -0.793810        -1.925418
 H         5.429029        -0.464393        -0.538002
 H         3.706349        -2.073298         0.511142
 H         4.033827         0.347286         1.758734
