19
Iteration:   771charge 0 multiplicity 1
 C         0.032934         0.035049        -0.144005
 C         1.516384         0.003415         0.050359
 C         2.066606         1.115095        -0.925926
 C         3.544437         1.014910        -0.414375
 C         4.204680        -0.384372        -0.996761
 C         3.420253        -1.149519         0.133246
 O         2.031588        -1.222298        -0.186500
 C         3.341897         0.154533         1.062411
 O         1.986366         0.419171         1.341232
 H        -0.613518        -0.667238         0.557722
 H        -0.301820         1.048609        -0.097429
 H        -0.162338        -0.216633        -1.206204
 H         2.029141         0.778143        -2.015619
 H         1.734130         2.201958        -0.795308
 H         4.059012         2.048782        -0.623096
 H         4.059345        -0.701334        -2.024582
 H         5.279100        -0.381582        -0.717963
 H         3.782893        -2.124681         0.445578
 H         4.042368         0.220627         1.916562
