19
Iteration:  3125charge 0 multiplicity 1
 C        -0.042075        -0.077364        -0.131765
 C         1.484674         0.103127        -0.035600
 C         2.208014         1.186635        -0.769038
 C         3.643954         0.917904        -0.367065
 C         4.181272        -0.359559        -0.994723
 C         3.408292        -1.119887         0.165373
 O         1.991838        -1.180393        -0.297010
 C         3.350768         0.178236         1.002792
 O         1.939029         0.362507         1.328323
 H        -0.252309        -0.691745         0.723998
 H        -0.658103         0.898355        -0.156155
 H        -0.403231        -0.616935        -0.998662
 H         2.106855         1.129754        -1.901013
 H         1.905652         2.264110        -0.459519
 H         4.518215         1.625803        -0.303246
 H         3.758170        -0.403749        -2.145029
 H         5.268191        -0.532557        -0.943413
 H         3.686802        -2.146780         0.606879
 H         4.076992         0.438255         1.723394
