19
Iteration:  2362
 C        -0.072620         0.120791         0.073261
 C         1.451020         0.070528        -0.023077
 C         2.124234         1.080677        -0.908367
 C         3.602408         0.946298        -0.399787
 C         4.335868        -0.330302        -0.884141
 C         3.358458        -1.071067         0.147413
 O         2.124354        -1.271610        -0.397344
 C         3.253227         0.229698         1.000438
 O         1.973551         0.255048         1.266856
 H        -0.444212        -0.262515         1.052652
 H        -0.483377         1.167096         0.178276
 H        -0.725245        -0.350288        -0.734455
 H         1.920413         0.698653        -1.881714
 H         1.582140         2.003667        -0.832858
 H         4.149884         1.869016        -0.450536
 H         4.166413        -0.775232        -1.900341
 H         5.379371        -0.292262        -0.696079
 H         3.935209        -1.926554         0.611229
 H         4.047518         0.394468         1.751610
