19
Iteration:  1598
 C        -0.000960        -0.000155        -0.130984
 C         1.526727         0.070775         0.021045
 C         2.168101         1.153809        -0.850719
 C         3.649029         0.896634        -0.362083
 C         4.167021        -0.313304        -1.002126
 C         3.435502        -1.125436         0.115174
 O         1.963897        -1.310860        -0.210263
 C         3.304905         0.233620         1.006179
 O         1.977226         0.438568         1.277433
 H        -0.387470        -0.612185         0.670504
 H        -0.552570         0.962210         0.055273
 H        -0.273098        -0.612157        -1.074028
 H         2.113739         1.172944        -1.887705
 H         1.725667         2.007399        -0.493970
 H         4.359852         1.760379        -0.325277
 H         3.695871        -0.552658        -1.964732
 H         5.208340        -0.523541        -1.134869
 H         3.756158        -2.029339         0.716296
 H         4.014126         0.220142         1.892277
