19
Iteration:  3689charge 0 multiplicity 1
 C        -0.063537        -0.083398        -0.078352
 C         1.344213         0.069023        -0.000888
 C         2.192235         1.077392        -0.884252
 C         3.653246         0.926533        -0.398751
 C         4.214557        -0.326324        -0.882057
 C         3.348706        -1.057779         0.077094
 O         2.014616        -1.206491        -0.264144
 C         3.407109         0.177140         0.969628
 O         2.011630         0.462884         1.320240
 H        -0.234610        -0.824977         0.737695
 H        -0.606932         0.807829        -0.053730
 H        -0.267829        -0.609162        -0.965818
 H         2.076045         0.866166        -1.997397
 H         1.854489         2.223402        -0.718596
 H         4.279813         1.843299        -0.306053
 H         4.030081        -0.604649        -1.842345
 H         5.219546        -0.529170        -0.576649
 H         3.772107        -2.001341         0.397180
 H         4.019362         0.168212         1.884549
