19
Iteration:   379
 C        -0.033937        -0.171804        -0.117214
 C         1.473055         0.100034         0.035826
 C         2.172013         1.202735        -0.886531
 C         3.654436         0.927688        -0.379033
 C         4.194546        -0.368978        -0.985612
 C         3.374009        -1.153134         0.085264
 O         2.008266        -1.130984        -0.237101
 C         3.384931         0.216626         1.025776
 O         1.934603         0.417303         1.359128
 H        -0.284091        -0.970635         0.699313
 H        -0.543347         0.671254         0.188318
 H        -0.249081        -0.522700        -1.172161
 H         2.051997         1.095393        -1.985998
 H         1.908943         2.207303        -0.566403
 H         4.345382         1.724604        -0.557226
 H         3.817087        -0.681535        -1.968181
 H         5.313167        -0.573877        -1.009453
 H         3.629913        -2.283849         0.335120
 H         4.015553         0.549200         1.834278
