19
Iteration:  4299charge 0 multiplicity 1
 C        -0.099224        -0.068629        -0.035144
 C         1.396036         0.089588         0.034359
 C         2.146724         1.151559        -0.907651
 C         3.653761         0.940515        -0.425866
 C         4.262209        -0.423675        -0.841248
 C         3.428614        -1.110046         0.101812
 O         2.040495        -1.115782        -0.344573
 C         3.292742         0.173159         0.955782
 O         2.002493         0.376614         1.370579
 H        -0.352377        -0.799345         0.724615
 H        -0.463631         0.979638         0.047421
 H        -0.393751        -0.472424        -1.004945
 H         1.996578         0.875549        -1.961859
 H         1.673162         2.214702        -0.809131
 H         4.121055         1.880644        -0.382646
 H         4.273287        -0.757744        -2.006753
 H         5.363787        -0.484443        -0.699903
 H         3.735184        -2.063348         0.486222
 H         4.109704         0.254800         1.694636
