19
Iteration:  4584charge 0 multiplicity 1
 C        -0.006525         0.004926        -0.076585
 C         1.446913         0.020609         0.010142
 C         2.166034         1.032898        -0.874475
 C         3.638640         1.006271        -0.356131
 C         4.193204        -0.334019        -0.939392
 C         3.385531        -1.117227         0.125721
 O         2.011160        -1.200166        -0.287188
 C         3.331256         0.230415         0.978489
 O         1.985046         0.366430         1.326723
 H        -0.532886        -0.906662         0.443126
 H        -0.453119         0.985046         0.330383
 H        -0.334782        -0.066252        -1.142240
 H         2.115310         0.898765        -1.955992
 H         1.650570         2.070342        -0.742251
 H         4.343397         1.849980        -0.343394
 H         3.973734        -0.651778        -2.047015
 H         5.224818        -0.392271        -0.799675
 H         3.930581        -2.032204         0.465660
 H         4.003906         0.285001         1.834411
