19
Iteration:  3446charge 0 multiplicity 1
 C        -0.090692        -0.041118         0.038834
 C         1.395742         0.109308        -0.004784
 C         2.131135         1.055772        -0.929503
 C         3.580288         0.975007        -0.442259
 C         4.347210        -0.395169        -0.788225
 C         3.377483        -1.134552         0.100858
 O         2.011220        -1.154472        -0.376941
 C         3.392814         0.174213         0.968758
 O         2.007576         0.400369         1.280145
 H        -0.276452        -0.875608         0.629140
 H        -0.489048         0.882549         0.490519
 H        -0.557550        -0.072163        -0.937331
 H         1.971831         0.836678        -1.992109
 H         1.660674         2.067739        -0.852646
 H         4.196636         1.834675        -0.275603
 H         4.481163        -0.678410        -1.806858
 H         5.325050        -0.170668        -0.356529
 H         3.457723        -2.134038         0.606756
 H         4.044022         0.281695         1.797157
