19
Iteration:   912charge 0 multiplicity 1
 C        -0.076242         0.124548        -0.155154
 C         1.394573        -0.016109        -0.011808
 C         2.182881         1.028841        -0.942829
 C         3.622904         0.956175        -0.359161
 C         4.190036        -0.337007        -1.001528
 C         3.437949        -1.075571         0.150307
 O         2.099615        -1.329425        -0.139270
 C         3.360287         0.273361         1.020388
 O         1.950605         0.355506         1.321510
 H        -0.553548        -0.730119         0.424614
 H        -0.378965         1.029142         0.323876
 H        -0.329763         0.143864        -1.187450
 H         2.049119         0.920897        -2.063548
 H         1.739470         2.027122        -0.645950
 H         4.190561         1.986185        -0.550556
 H         3.740361        -0.756517        -1.920491
 H         5.319166        -0.308409        -1.022458
 H         3.825133        -1.979132         0.601771
 H         3.971031         0.617011         1.814595
