19
Iteration:  4035
 C        -0.132641        -0.013678        -0.050546
 C         1.475017         0.058500        -0.003765
 C         2.118775         1.132484        -0.858106
 C         3.585030         0.900087        -0.340209
 C         4.265396        -0.332837        -0.944047
 C         3.366572        -1.113234         0.107476
 O         2.043976        -1.207237        -0.285500
 C         3.329525         0.188030         0.959151
 O         2.051585         0.369656         1.291113
 H        -0.407955        -0.802227         0.753189
 H        -0.443378         1.011179         0.304801
 H        -0.549340        -0.193765        -1.079820
 H         2.147740         1.026370        -2.001758
 H         1.755700         2.252699        -0.640828
 H         4.163911         1.872281        -0.269862
 H         4.429521        -0.590731        -2.024920
 H         5.242147        -0.421820        -0.586976
 H         3.797667        -2.145921         0.271256
 H         3.964607         0.385122         1.830350
