19
Iteration:  2418charge 0 multiplicity 1
 C        -0.039466        -0.148548        -0.144680
 C         1.472888         0.108809         0.106306
 C         2.197453         1.182826        -0.927259
 C         3.659095         0.934399        -0.363577
 C         4.147115        -0.328491        -1.018105
 C         3.322959        -1.118745         0.155799
 O         1.980039        -1.221552        -0.256569
 C         3.411042         0.220988         1.018549
 O         1.984168         0.428737         1.351094
 H        -0.204406        -1.198593         0.337611
 H        -0.617298         0.731906         0.211825
 H        -0.246371        -0.197463        -1.237956
 H         2.137998         0.735772        -1.868255
 H         1.762019         2.117680        -0.693932
 H         4.284631         1.781581        -0.396139
 H         3.850914        -0.695522        -2.025029
 H         5.184965        -0.427846        -0.913316
 H         3.840287        -2.061563         0.475436
 H         4.245672         0.516733         1.765289
