19
Iteration:  3636
 C        -0.063395         0.034811        -0.129588
 C         1.390995        -0.028091        -0.041736
 C         2.140551         1.087464        -0.892228
 C         3.599400         0.966849        -0.473648
 C         4.232782        -0.379244        -0.941488
 C         3.443969        -1.110380         0.152126
 O         2.052008        -1.230280        -0.259541
 C         3.335652         0.227064         1.048704
 O         2.008736         0.384184         1.389607
 H        -0.501428        -0.728543         0.613665
 H        -0.219931         1.061576         0.224158
 H        -0.443409         0.089536        -1.161498
 H         1.980098         0.979443        -1.941686
 H         1.705281         2.039331        -0.819889
 H         4.211149         1.893064        -0.364645
 H         3.942676        -0.685242        -1.917013
 H         5.335904        -0.206787        -0.932445
 H         3.845036        -1.952233         0.676833
 H         3.936602         0.287008         1.963807
