19
Iteration:  3940charge 0 multiplicity 1
 C        -0.098529        -0.092182        -0.099843
 C         1.418304         0.117389        -0.026143
 C         2.209734         1.194092        -0.801425
 C         3.633889         0.974286        -0.434857
 C         4.153191        -0.387639        -0.961347
 C         3.400110        -1.112403         0.128229
 O         2.039093        -1.195228        -0.253315
 C         3.371504         0.195456         1.040411
 O         2.022340         0.344829         1.300124
 H        -0.296370        -0.918072         0.588031
 H        -0.644135         0.821222         0.167841
 H        -0.056317        -0.430152        -1.180815
 H         1.918192         1.133744        -1.854510
 H         1.762076         2.133837        -0.516711
 H         4.273338         1.940206        -0.484567
 H         3.939881        -0.835149        -1.961663
 H         5.318839        -0.440859        -1.046390
 H         3.511665        -2.109642         0.548105
 H         3.955591         0.471607         1.939233
