19
Iteration:  2440
 C        -0.072236         0.019085        -0.125779
 C         1.454411         0.022080        -0.011475
 C         2.110157         1.116595        -0.872519
 C         3.629321         0.994207        -0.415211
 C         4.198807        -0.393494        -0.981672
 C         3.497410        -1.109765         0.155258
 O         2.060649        -1.208373        -0.194457
 C         3.299938         0.221095         0.984900
 O         1.972638         0.364555         1.334541
 H        -0.386780        -1.019863         0.332335
 H        -0.557330         0.878997         0.371782
 H        -0.478406         0.069948        -1.150208
 H         2.104590         1.015697        -1.904579
 H         1.883089         2.051642        -0.441892
 H         4.084699         1.936810        -0.555652
 H         3.805114        -0.800635        -1.942840
 H         5.241777        -0.549335        -0.992843
 H         3.988269        -2.037857         0.542770
 H         4.091726         0.345630         1.788001
