19
Iteration:   854
 C        -0.157211        -0.129532         0.048556
 C         1.371442         0.068961         0.011975
 C         2.163457         1.145453        -0.930294
 C         3.744448         0.944099        -0.424562
 C         4.336088        -0.447236        -0.861369
 C         3.402251        -1.090469         0.172898
 O         1.990935        -1.108322        -0.388249
 C         3.313641         0.218870         0.973098
 O         1.968449         0.435773         1.288886
 H        -0.334708        -0.963677         0.806583
 H        -0.588102         0.847132         0.412197
 H        -0.599347        -0.591905        -0.909719
 H         1.963278         0.699051        -2.009053
 H         1.922840         2.159741        -1.003904
 H         4.457129         1.810343        -0.656280
 H         4.335492        -0.951521        -1.829650
 H         5.439505        -0.275364        -0.593178
 H         3.702053        -2.029251         0.675827
 H         3.980726         0.370348         1.894871
