19
Iteration:  1244charge 0 multiplicity 1
 C        -0.078522         0.130345         0.109391
 C         1.426256         0.000272        -0.065374
 C         2.137881         1.080413        -0.913558
 C         3.587910         0.941717        -0.340732
 C         4.358976        -0.348788        -0.894104
 C         3.419228        -1.142752         0.084890
 O         2.049224        -1.285079        -0.359809
 C         3.308632         0.194496         1.007216
 O         1.908150         0.415016         1.233188
 H        -0.304577        -0.730174         0.840598
 H        -0.329604         1.018423         0.539116
 H        -0.485755        -0.124900        -0.867329
 H         2.219529         0.924278        -2.020838
 H         1.735519         2.043478        -0.755252
 H         4.225737         1.806582        -0.240763
 H         4.213577        -0.374655        -1.984714
 H         5.421522        -0.354359        -0.580345
 H         3.852554        -2.142640         0.423974
 H         3.926173         0.409605         1.896569
