19
Iteration:   485
 C        -0.086098        -0.083671         0.005722
 C         1.440028         0.107535        -0.009310
 C         2.147429         1.184219        -0.834799
 C         3.633491         0.890140        -0.373679
 C         4.270178        -0.384720        -1.056235
 C         3.474015        -1.128705         0.222970
 O         2.051531        -1.181676        -0.251977
 C         3.313091         0.137224         0.964595
 O         1.926834         0.458806         1.228199
 H        -0.286030        -1.016091         0.515341
 H        -0.601802         0.909034         0.271130
 H        -0.467388        -0.229251        -1.043371
 H         1.934619         1.069792        -1.942961
 H         1.880148         2.162544        -0.417751
 H         4.333312         1.819994        -0.381777
 H         3.866743        -0.735019        -2.001958
 H         5.359612        -0.345696        -1.039212
 H         3.810028        -2.022170         0.665326
 H         3.933652         0.119017         1.809623
