19
Iteration:   291charge 0 multiplicity 1
 C        -0.147317         0.012059         0.066247
 C         1.415211         0.004494        -0.002617
 C         2.149254         0.997329        -0.956344
 C         3.615584         0.927257        -0.356140
 C         4.296103        -0.341046        -0.887195
 C         3.440003        -1.086080         0.119125
 O         2.009125        -1.198483        -0.400420
 C         3.379454         0.230542         1.007947
 O         2.017624         0.446166         1.304703
 H        -0.461404        -0.736673         0.831525
 H        -0.660731         0.931032         0.350420
 H        -0.642923        -0.176418        -0.906826
 H         2.170920         0.753509        -2.045869
 H         1.634703         1.961009        -0.980403
 H         4.178006         1.874931        -0.421486
 H         4.302837        -0.707341        -1.922729
 H         5.385277        -0.258185        -0.546783
 H         3.601752        -2.173106         0.550855
 H         4.008838         0.462305         1.812507
