19
Iteration:  4984charge 0 multiplicity 1
 C        -0.135886        -0.050451        -0.047382
 C         1.486321         0.045977        -0.012526
 C         2.173524         1.137617        -0.880449
 C         3.638847         0.948962        -0.410482
 C         4.289235        -0.377398        -0.932710
 C         3.437189        -1.157686         0.112863
 O         1.999421        -1.157683        -0.321164
 C         3.305450         0.175120         1.018482
 O         1.961854         0.396003         1.342610
 H        -0.389474        -0.925460         0.683040
 H        -0.464101         1.021084         0.207770
 H        -0.677949        -0.245749        -0.977029
 H         2.059501         1.195971        -2.015284
 H         1.847366         2.150458        -0.545173
 H         4.379674         1.851899        -0.238700
 H         4.256387        -0.587829        -2.031777
 H         5.324572        -0.356452        -0.614170
 H         3.607453        -2.240121         0.345174
 H         4.060368         0.482960         1.754318
