19
Iteration:  3669
 C         0.009878         0.001581        -0.128441
 C         1.464073         0.049407        -0.023896
 C         2.154184         1.156509        -0.862450
 C         3.630848         0.982886        -0.397694
 C         4.188730        -0.377102        -0.997590
 C         3.430381        -1.170561         0.130832
 O         2.022703        -1.293747        -0.173716
 C         3.310714         0.254647         1.012443
 O         1.965359         0.386390         1.300648
 H        -0.614511        -0.643910         0.569050
 H        -0.368326         1.002219         0.040955
 H        -0.472454        -0.403343        -1.058945
 H         2.119910         0.921635        -1.906639
 H         1.734947         2.120743        -0.483109
 H         4.243752         1.923673        -0.318991
 H         3.864377        -0.537834        -2.005891
 H         5.303040        -0.289708        -1.026254
 H         3.883435        -2.016222         0.602176
 H         3.954415         0.493897         1.846869
