19
Iteration:  1267
 C        -0.128788         0.114505         0.015588
 C         1.467542         0.067024        -0.025233
 C         2.179211         1.045225        -0.948547
 C         3.593704         0.986466        -0.402965
 C         4.289802        -0.309721        -0.904890
 C         3.418502        -1.091794         0.113428
 O         2.030518        -1.256005        -0.291917
 C         3.327985         0.151296         0.963759
 O         1.967527         0.288435         1.308482
 H        -0.593033        -0.686064         0.680871
 H        -0.254256         0.953647         0.615140
 H        -0.619434         0.254966        -0.936624
 H         2.263153         0.716953        -2.023797
 H         1.738987         2.018180        -0.911569
 H         4.142570         1.905138        -0.393885
 H         4.244585        -0.312850        -1.982419
 H         5.323985        -0.340798        -0.464448
 H         3.899271        -2.036142         0.592701
 H         3.831057         0.271809         1.906437
