19
Iteration:  3293charge 0 multiplicity 1
 C        -0.101973         0.136567         0.027190
 C         1.409405         0.058994         0.031793
 C         2.177123         1.092965        -0.938751
 C         3.585601         0.926102        -0.327997
 C         4.285060        -0.305312        -0.850247
 C         3.496264        -1.094147         0.073929
 O         2.059312        -1.282702        -0.367596
 C         3.294736         0.195034         0.926883
 O         1.948285         0.312755         1.295333
 H        -0.688347        -0.505255         0.732560
 H        -0.383611         1.155985         0.182132
 H        -0.361419        -0.282650        -0.943115
 H         2.003024         0.750461        -1.915476
 H         1.679017         1.946552        -0.650283
 H         4.170049         1.843622        -0.363284
 H         4.081841        -0.637645        -1.882205
 H         5.381674        -0.301731        -0.526757
 H         3.844975        -2.052866         0.591031
 H         4.118793         0.303623         1.698951
