19
Iteration:  1903charge 0 multiplicity 1
 C        -0.045853        -0.063870        -0.074932
 C         1.438712         0.050675         0.029475
 C         2.120328         1.158726        -0.913799
 C         3.642807         0.942980        -0.429392
 C         4.310139        -0.409156        -0.971843
 C         3.398512        -1.102534         0.136494
 O         2.020720        -1.203551        -0.243056
 C         3.345499         0.259230         0.949923
 O         1.969057         0.415314         1.351061
 H        -0.432920        -0.917102         0.564404
 H        -0.388634         0.885499         0.254403
 H        -0.241736        -0.318670        -1.074906
 H         1.844423         0.711588        -1.949331
 H         1.552184         2.155767        -0.778124
 H         4.102662         1.859176        -0.306954
 H         4.045364        -0.767173        -1.978374
 H         5.352600        -0.483103        -0.566846
 H         3.542019        -2.086577         0.633752
 H         3.991160         0.371562         1.848354
