19
Iteration:   562
 C        -0.062062         0.148715         0.088830
 C         1.454604        -0.019680        -0.027616
 C         2.168237         1.003188        -0.935261
 C         3.609820         1.020287        -0.390211
 C         4.317845        -0.306897        -0.917143
 C         3.376436        -1.100966         0.144445
 O         2.067373        -1.287717        -0.322497
 C         3.296108         0.198399         0.996304
 O         1.923399         0.342404         1.239691
 H        -0.498542        -0.654056         0.812544
 H        -0.208317         1.168612         0.503405
 H        -0.694550         0.031437        -0.863092
 H         2.152640         0.676829        -2.054600
 H         1.618855         1.944153        -0.847637
 H         4.230620         1.978014        -0.376624
 H         4.138063        -0.545887        -1.961116
 H         5.400603        -0.384702        -0.717233
 H         3.895064        -1.950053         0.545266
 H         3.902617         0.364968         1.852798
