19
Iteration:   588charge 0 multiplicity 1
 C        -0.030572         0.011220         0.043090
 C         1.460022         0.073629        -0.035902
 C         2.134011         1.135332        -0.975682
 C         3.561785         0.963841        -0.412797
 C         4.293694        -0.404640        -0.864502
 C         3.407908        -1.121741         0.135097
 O         1.982000        -1.204605        -0.358052
 C         3.320116         0.219027         0.983576
 O         1.989275         0.340525         1.329441
 H        -0.300952        -0.659966         0.917618
 H        -0.494343         0.968309         0.197721
 H        -0.451141        -0.498956        -0.818477
 H         2.161768         0.858290        -1.998147
 H         1.677821         2.141587        -0.913117
 H         4.242896         1.760724        -0.417486
 H         4.394249        -0.638427        -1.942111
 H         5.321934        -0.319982        -0.451168
 H         3.836050        -2.037765         0.675571
 H         4.025382         0.557051         1.813423
