19
Iteration:   842charge 0 multiplicity 1
 C        -0.042383        -0.130053         0.107815
 C         1.453590         0.124075        -0.005705
 C         2.143981         1.133304        -0.937375
 C         3.636600         0.961822        -0.418229
 C         4.316918        -0.463051        -0.817111
 C         3.317018        -1.090309         0.162520
 O         2.044707        -1.208935        -0.453681
 C         3.330988         0.249349         0.944834
 O         1.963256         0.468020         1.289884
 H        -0.349314        -0.760079         0.932506
 H        -0.637188         0.888449         0.190114
 H        -0.403043        -0.448165        -0.926033
 H         2.200212         0.812519        -2.010518
 H         1.636789         2.059447        -0.793592
 H         4.242012         1.845463        -0.319137
 H         4.164459        -0.746791        -1.867564
 H         5.356889        -0.644727        -0.453713
 H         3.470921        -2.075518         0.678785
 H         4.033392         0.335910         1.826155
