19
Iteration:  2710charge 0 multiplicity 1
 C        -0.039025         0.069579        -0.131355
 C         1.470195         0.030610        -0.007138
 C         2.172636         1.083453        -0.871347
 C         3.564757         0.951006        -0.370012
 C         4.115930        -0.420188        -0.986773
 C         3.456534        -1.104611         0.118943
 O         2.079809        -1.234847        -0.213484
 C         3.392602         0.254027         1.043319
 O         1.947470         0.353069         1.293183
 H        -0.511266        -0.396754         0.729211
 H        -0.212202         1.053135         0.043875
 H        -0.247717        -0.442075        -1.056151
 H         2.143422         0.913901        -2.013864
 H         1.525317         2.042418        -0.640563
 H         4.104165         1.861126        -0.444693
 H         3.928113        -0.508019        -2.114372
 H         5.172619        -0.379888        -0.915466
 H         3.825130        -2.036385         0.678828
 H         3.956003         0.456736         1.998204
