19
Iteration:  3895
 C        -0.071754         0.052670        -0.034387
 C         1.389634         0.034569         0.013700
 C         2.210442         1.080832        -0.883790
 C         3.607599         0.952405        -0.378213
 C         4.249811        -0.273066        -0.965276
 C         3.435805        -1.041077         0.119388
 O         1.972157        -1.288493        -0.275257
 C         3.349081         0.204603         0.987156
 O         2.015322         0.319109         1.299171
 H        -0.528650        -0.528854         0.876978
 H        -0.559782         1.054907        -0.007487
 H        -0.478691        -0.436181        -0.938185
 H         2.032119         0.938944        -1.952735
 H         1.781366         2.047814        -0.747317
 H         4.201047         1.930362        -0.503773
 H         4.355967        -0.415053        -2.107147
 H         5.302634        -0.561895        -0.612554
 H         3.896758        -1.977183         0.464834
 H         3.871807         0.149555         1.927876
