19
Iteration:   357
 C        -0.129102        -0.046151        -0.123753
 C         1.430256         0.120368         0.090052
 C         2.128810         1.090536        -0.808826
 C         3.627053         0.967668        -0.364351
 C         4.214762        -0.377621        -0.991463
 C         3.371755        -1.071410         0.127529
 O         2.067186        -1.286137        -0.303885
 C         3.374139         0.170016         0.929039
 O         2.013086         0.489497         1.337749
 H        -0.325162        -1.049313         0.436871
 H        -0.728245         0.733766         0.262484
 H        -0.050061        -0.121320        -1.246155
 H         1.945414         0.838164        -1.879340
 H         1.700288         2.073408        -0.619785
 H         4.342777         1.767558        -0.301683
 H         4.026190        -0.639254        -2.041957
 H         5.365012        -0.436361        -0.903982
 H         3.940832        -1.941035         0.754399
 H         4.007120         0.111945         1.785882
