19
Iteration:  1858charge 0 multiplicity 1
 C        -0.025818         0.028553        -0.109126
 C         1.461369         0.065014        -0.020965
 C         2.104823         1.088628        -0.917988
 C         3.634982         1.007930        -0.369925
 C         4.211015        -0.440720        -1.020098
 C         3.492663        -1.075217         0.152951
 O         2.048914        -1.302952        -0.126550
 C         3.269819         0.234676         0.971341
 O         1.939107         0.368172         1.314697
 H        -0.530304        -0.816696         0.394470
 H        -0.187345         0.897342         0.447543
 H        -0.314679         0.130491        -1.131223
 H         2.378904         1.069944        -2.058203
 H         1.604768         2.107787        -0.785343
 H         4.150790         1.894897        -0.384146
 H         3.819528        -0.441962        -2.020166
 H         5.373581        -0.505181        -0.994597
 H         3.851078        -1.960949         0.621347
 H         3.978986         0.493782         1.758087
