19
Iteration:  4271charge 0 multiplicity 1
 C        -0.047197         0.033019         0.080510
 C         1.386498         0.062213        -0.070267
 C         2.208754         1.104904        -0.869288
 C         3.641067         0.917124        -0.428395
 C         4.300099        -0.363539        -0.842176
 C         3.402760        -1.136306         0.107322
 O         2.069297        -1.210027        -0.386444
 C         3.270328         0.222206         0.996915
 O         1.922095         0.352781         1.262780
 H        -0.249590        -0.534603         1.080817
 H        -0.559579         0.991371         0.319590
 H        -0.560438        -0.455226        -0.756904
 H         2.082230         1.028229        -1.953922
 H         1.745486         2.047179        -0.636067
 H         4.084911         1.978247        -0.574777
 H         4.272742        -0.535429        -1.860739
 H         5.397541        -0.230432        -0.724288
 H         3.664301        -2.072726         0.651395
 H         4.033872         0.247215         1.815174
