19
Iteration:  2525charge 0 multiplicity 1
 C        -0.035623        -0.094164         0.009134
 C         1.453108         0.045377        -0.052269
 C         2.136058         1.197619        -0.875686
 C         3.667627         0.940660        -0.410442
 C         4.211781        -0.374345        -0.920580
 C         3.391280        -1.130679         0.154541
 O         1.989551        -1.221340        -0.289567
 C         3.299730         0.234683         0.992326
 O         2.007694         0.415423         1.249830
 H        -0.189727        -0.588843         0.999318
 H        -0.444278         0.893384         0.048211
 H        -0.231051        -0.711340        -0.880577
 H         1.970278         1.195693        -1.947005
 H         1.802963         2.215293        -0.614746
 H         4.225923         1.830474        -0.479005
 H         4.104814        -0.741917        -2.014770
 H         5.278303        -0.403215        -0.664604
 H         3.778230        -2.101170         0.597571
 H         3.980097         0.304619         1.908326
