19
Iteration:  1353charge 0 multiplicity 1
 C        -0.034489        -0.022640        -0.050734
 C         1.398217         0.111632        -0.021050
 C         2.200492         1.102484        -0.890939
 C         3.590431         0.954025        -0.374258
 C         4.210904        -0.372193        -0.944075
 C         3.453761        -1.122687         0.097364
 O         2.001117        -1.193604        -0.352431
 C         3.341768         0.177028         1.050321
 O         1.990397         0.365662         1.332270
 H        -0.402133        -0.523209         0.970136
 H        -0.443324         0.964718         0.136453
 H        -0.478594        -0.431703        -0.978646
 H         2.147544         1.001459        -1.955561
 H         1.744157         2.020089        -0.602046
 H         4.239330         1.828060        -0.286863
 H         3.969922        -0.646059        -1.996585
 H         5.299152        -0.285838        -0.711896
 H         3.863771        -2.056105         0.481534
 H         3.984323         0.269928         1.947656
