19
Iteration:  1206
 C        -0.057303        -0.111656        -0.069387
 C         1.429200         0.181709         0.065065
 C         2.148551         1.234631        -0.897855
 C         3.643417         0.895142        -0.388320
 C         4.242525        -0.434414        -0.965129
 C         3.437892        -1.156542         0.115968
 O         2.019915        -1.152881        -0.302769
 C         3.352845         0.189447         1.014384
 O         1.987621         0.390104         1.348899
 H        -0.432815        -0.790630         0.644789
 H        -0.853213         0.769474        -0.208727
 H        -0.339689        -0.542177        -1.050868
 H         2.089911         0.988757        -1.971196
 H         1.571375         2.184457        -0.705109
 H         4.197616         1.868556        -0.480934
 H         4.209266        -0.627927        -2.058169
 H         5.304400        -0.648574        -0.743068
 H         3.603149        -2.144109         0.484653
 H         3.890334         0.398644         1.944069
