19
Iteration:  4000charge 0 multiplicity 1
 C        -0.039054         0.106990         0.085469
 C         1.405082        -0.003262        -0.078077
 C         2.188954         1.047463        -0.942441
 C         3.590687         0.971415        -0.362312
 C         4.318632        -0.340447        -0.948965
 C         3.411921        -1.036170         0.136952
 O         2.080800        -1.222278        -0.375904
 C         3.282912         0.237280         0.983123
 O         1.929593         0.248090         1.328408
 H        -0.552297        -0.646643         0.751567
 H        -0.208955         1.076672         0.589570
 H        -0.671902         0.103534        -0.767435
 H         2.127728         0.689539        -2.026462
 H         1.755137         2.175271        -0.748560
 H         4.204039         1.823966        -0.329706
 H         4.068967        -0.628752        -1.979847
 H         5.301859        -0.430151        -0.553299
 H         3.713011        -2.034925         0.574992
 H         3.910130         0.479868         1.842424
