19
Iteration:  4144
 C        -0.093900         0.030327         0.056816
 C         1.378967         0.136315        -0.022859
 C         2.188916         1.093237        -1.030130
 C         3.620718         0.935423        -0.270710
 C         4.325773        -0.276625        -0.960833
 C         3.377231        -1.120726         0.123526
 O         2.030412        -1.229605        -0.337567
 C         3.324067         0.092957         1.018571
 O         2.004824         0.378819         1.322096
 H        -0.381473        -0.774338         0.720978
 H        -0.585957         0.898769         0.438118
 H        -0.497157        -0.279231        -0.909911
 H         2.254520         0.678121        -2.090670
 H         1.611487         2.076189        -0.938789
 H         3.899211         1.910492        -0.542478
 H         4.257779        -0.520129        -2.070620
 H         5.265379        -0.212829        -0.495997
 H         3.769443        -2.114460         0.479654
 H         4.105354         0.087563         1.770437
