19
Iteration:  2390
 C        -0.076744        -0.109232        -0.031623
 C         1.449927         0.048780        -0.043102
 C         2.154425         1.178760        -0.876382
 C         3.642268         0.898601        -0.374646
 C         4.299005        -0.347982        -0.983365
 C         3.349056        -1.101600         0.123737
 O         2.010326        -1.202707        -0.267344
 C         3.332153         0.185875         0.996899
 O         1.976145         0.436228         1.299956
 H        -0.322000        -0.753557         0.794537
 H        -0.463981         0.880890         0.233125
 H        -0.608311        -0.374698        -0.928041
 H         2.036718         0.997524        -2.006817
 H         1.734706         2.174573        -0.470781
 H         4.268659         1.845210        -0.350558
 H         4.247161        -0.679042        -2.010845
 H         5.400828        -0.369717        -0.654361
 H         3.754639        -1.996497         0.508827
 H         4.086785         0.328130         1.708110
