19
Iteration:   449charge 0 multiplicity 1
 C        -0.070165         0.079440         0.047225
 C         1.481395         0.105131         0.035442
 C         2.190339         1.008060        -0.958248
 C         3.602966         1.009009        -0.449134
 C         4.267416        -0.234813        -0.840795
 C         3.396767        -1.128402         0.111032
 O         1.936472        -1.292769        -0.353401
 C         3.362462         0.210820         0.977932
 O         2.001078         0.267233         1.314959
 H        -0.517984        -0.371172         0.866631
 H        -0.616097         1.133159         0.171748
 H        -0.325139        -0.402414        -0.848320
 H         2.114848         0.584975        -1.952372
 H         1.725248         2.029274        -1.008599
 H         4.121748         1.988867        -0.421862
 H         4.351743        -0.393619        -1.939906
 H         5.259402        -0.040770        -0.519591
 H         3.690015        -2.096062         0.453293
 H         4.141676         0.205031         1.816191
