19
Iteration:  2173charge 0 multiplicity 1
 C        -0.072523        -0.057223        -0.097211
 C         1.501217         0.101563        -0.023036
 C         2.083824         1.189836        -0.852567
 C         3.619180         0.892984        -0.382610
 C         4.289881        -0.392181        -0.959060
 C         3.368861        -1.138332         0.215441
 O         2.003669        -1.214501        -0.304137
 C         3.358868         0.209319         0.935448
 O         1.994072         0.420891         1.330339
 H        -0.302512        -0.668618         0.828380
 H        -0.789718         0.781195         0.015186
 H        -0.364225        -0.590347        -1.000337
 H         2.030900         1.300974        -1.941818
 H         1.789378         2.044750        -0.323199
 H         4.227935         1.900538        -0.344597
 H         4.171516        -0.682859        -1.960203
 H         5.397179        -0.405656        -0.839572
 H         3.653031        -2.164195         0.469830
 H         4.152142         0.338970         1.724727
