19
Iteration:   286
 C        -0.120981        -0.014525         0.042955
 C         1.426367         0.053083        -0.020104
 C         2.149248         1.021612        -0.947814
 C         3.628798         0.908420        -0.434164
 C         4.276943        -0.347840        -0.885401
 C         3.417426        -1.075269         0.119931
 O         2.013603        -1.189506        -0.363796
 C         3.400026         0.203122         1.016847
 O         1.974096         0.435939         1.331589
 H        -0.308173        -0.754268         0.816776
 H        -0.653383         0.959069         0.365600
 H        -0.538927        -0.316272        -0.915886
 H         2.118727         0.698619        -1.990705
 H         1.681498         2.030932        -0.905658
 H         4.115613         1.911485        -0.473531
 H         4.369885        -0.606623        -1.953332
 H         5.264043        -0.322464        -0.456713
 H         3.643301        -2.012551         0.477818
 H         4.092613         0.314736         1.925707
