19
Iteration:  1692charge 0 multiplicity 1
 C        -0.045195        -0.074871         0.052558
 C         1.436782         0.125332        -0.000389
 C         2.247360         1.166369        -0.922675
 C         3.657788         0.924497        -0.397869
 C         4.254477        -0.455195        -0.923352
 C         3.345820        -1.128288         0.143200
 O         2.052924        -1.237861        -0.289564
 C         3.311603         0.252115         0.919933
 O         1.883359         0.431410         1.279300
 H        -0.130620        -0.969540         0.600258
 H        -0.356726         0.754526         0.740080
 H        -0.465474        -0.285685        -0.934125
 H         2.033647         0.886389        -2.071087
 H         1.828636         2.242225        -0.848083
 H         4.323645         1.739230        -0.320867
 H         4.039879        -0.401431        -1.997562
 H         5.385112        -0.287081        -0.863863
 H         3.714983        -2.026186         0.604504
 H         3.861149         0.358552         1.880910
