19
Iteration:  3443charge 0 multiplicity 1
 C        -0.070984        -0.025149         0.027395
 C         1.413258         0.136661        -0.003841
 C         2.136928         1.027585        -0.924983
 C         3.575655         0.988078        -0.440375
 C         4.358534        -0.385386        -0.781986
 C         3.364813        -1.103692         0.079937
 O         2.006108        -1.170115        -0.361202
 C         3.365977         0.168710         0.976722
 O         2.016615         0.385876         1.271566
 H        -0.380693        -0.871082         0.689801
 H        -0.527764         0.770244         0.575078
 H        -0.522698        -0.098720        -0.960883
 H         1.947185         0.773687        -2.019157
 H         1.670031         2.085462        -0.847399
 H         4.155480         1.882462        -0.254312
 H         4.455689        -0.744591        -1.825382
 H         5.345170        -0.296387        -0.474995
 H         3.464103        -2.086653         0.569234
 H         4.023684         0.281551         1.865642
