19
Iteration:  1595
 C        -0.010307        -0.024539        -0.136865
 C         1.502108         0.083567         0.006745
 C         2.156815         1.169432        -0.848579
 C         3.670800         0.888764        -0.364072
 C         4.188960        -0.296839        -1.018284
 C         3.422232        -1.144842         0.127856
 O         1.967688        -1.285829        -0.202459
 C         3.318091         0.212671         1.028267
 O         1.972033         0.437078         1.268847
 H        -0.257448        -0.596140         0.762086
 H        -0.479107         1.027719         0.076923
 H        -0.165158        -0.636901        -1.089394
 H         2.017000         1.196111        -2.001767
 H         1.621446         2.029286        -0.428840
 H         4.334255         1.685313        -0.418959
 H         3.663445        -0.650931        -1.852312
 H         5.271550        -0.496134        -1.160872
 H         3.698911        -2.032638         0.705005
 H         3.997352         0.224255         1.891191
