19
Iteration:  1232charge 0 multiplicity 1
 C        -0.023100        -0.007701         0.038181
 C         1.457850         0.098994        -0.039466
 C         2.221075         1.088930        -0.888147
 C         3.633526         0.927262        -0.353962
 C         4.270075        -0.322773        -0.914883
 C         3.381001        -1.099782         0.156570
 O         1.988080        -1.245642        -0.385130
 C         3.292712         0.208942         0.932825
 O         1.962231         0.362553         1.292574
 H        -0.323317        -0.702425         0.886916
 H        -0.366524         0.942819         0.294657
 H        -0.716016        -0.200415        -0.793796
 H         2.134504         0.867892        -1.941910
 H         1.781446         2.020373        -0.669351
 H         4.061009         1.940715        -0.452187
 H         4.355546        -0.572768        -2.000434
 H         5.282988        -0.382459        -0.551483
 H         3.581730        -1.983633         0.752115
 H         3.928195         0.297465         1.860338
