19
Iteration:  3690charge 0 multiplicity 1
 C        -0.059053        -0.088394        -0.075533
 C         1.345023         0.080443         0.003001
 C         2.185296         1.078268        -0.883798
 C         3.660777         0.926419        -0.399196
 C         4.218442        -0.331295        -0.872845
 C         3.344216        -1.062725         0.072335
 O         2.010488        -1.201661        -0.270266
 C         3.403715         0.183064         0.968209
 O         2.015148         0.460096         1.316259
 H        -0.274302        -0.835447         0.738712
 H        -0.629623         0.806276        -0.028559
 H        -0.301350        -0.655997        -0.971790
 H         2.096135         0.817007        -1.969774
 H         1.878279         2.197303        -0.710480
 H         4.278427         1.847551        -0.293840
 H         4.036723        -0.591248        -1.849682
 H         5.249100        -0.512356        -0.575137
 H         3.776745        -1.988343         0.402174
 H         4.019132         0.184404         1.861368
