19
Iteration:  4028charge 0 multiplicity 1
 C        -0.079833         0.038229         0.004571
 C         1.438137         0.097888        -0.029055
 C         2.096712         1.129852        -0.869390
 C         3.579165         0.950020        -0.373506
 C         4.285739        -0.313318        -0.909651
 C         3.411925        -1.137130         0.122864
 O         2.061286        -1.275165        -0.340222
 C         3.350966         0.160169         0.966309
 O         1.995487         0.366513         1.275739
 H        -0.572851        -0.619442         0.687484
 H        -0.460092         0.960041         0.475574
 H        -0.530335        -0.178223        -1.008938
 H         1.928928         0.868899        -1.891273
 H         1.868094         2.049832        -0.562633
 H         4.328921         1.794493        -0.390531
 H         4.204813        -0.528571        -1.972135
 H         5.342432        -0.420413        -0.436963
 H         3.787245        -2.111844         0.407554
 H         3.923807         0.439206         1.857240
