19
Iteration:  2926
 C        -0.043855         0.077177        -0.057054
 C         1.379130         0.036956        -0.042116
 C         2.091222         1.032551        -0.928568
 C         3.589069         0.944193        -0.373487
 C         4.313775        -0.345298        -0.876803
 C         3.452666        -1.059718         0.085962
 O         1.984541        -1.171860        -0.359384
 C         3.380757         0.165067         0.988550
 O         2.014166         0.321528         1.388698
 H        -0.359406        -0.292481         0.934575
 H        -0.440940         1.048346         0.043551
 H        -0.424479        -0.417702        -0.948041
 H         1.920350         0.662697        -1.918268
 H         1.718978         1.982167        -0.901095
 H         4.031879         1.929101        -0.282403
 H         4.380909        -0.678229        -1.955179
 H         5.304238        -0.330723        -0.425367
 H         3.692048        -2.012278         0.517851
 H         3.966363         0.328444         1.989073
