19
Iteration:  2764
 C        -0.058158        -0.114183         0.101471
 C         1.410383         0.126987        -0.014779
 C         2.185396         1.122278        -0.952266
 C         3.693076         0.952890        -0.386033
 C         4.290837        -0.394433        -0.796393
 C         3.329131        -1.159659         0.061713
 O         1.988157        -1.198878        -0.387501
 C         3.350137         0.219161         1.011143
 O         1.969006         0.465992         1.236150
 H        -0.015394        -0.652411         1.064890
 H        -0.454039         0.855028         0.126031
 H        -0.323712        -0.638417        -0.817255
 H         2.109594         0.763599        -2.025791
 H         1.665857         2.173300        -0.905573
 H         4.166784         1.868544        -0.170950
 H         4.118468        -0.547385        -1.911647
 H         5.273107        -0.475465        -0.467183
 H         3.579615        -2.253163         0.314007
 H         3.875865         0.427888         1.994614
