19
Iteration:  1398charge 0 multiplicity 1
 C        -0.078188         0.138057         0.057566
 C         1.489343        -0.030375        -0.089724
 C         2.186650         1.037722        -0.892697
 C         3.598189         0.965952        -0.391732
 C         4.322711        -0.266308        -0.860055
 C         3.414844        -1.105681         0.064375
 O         1.949698        -1.272025        -0.380336
 C         3.331576         0.234398         0.993546
 O         1.960824         0.329736         1.361091
 H        -0.443700        -0.483550         1.034619
 H        -0.509630         1.176070         0.045666
 H        -0.545276        -0.386885        -0.790941
 H         2.037399         0.700367        -1.953868
 H         1.820280         2.008559        -0.754830
 H         4.147311         1.894423        -0.516551
 H         4.264042        -0.549484        -1.919782
 H         5.383251        -0.430441        -0.444664
 H         3.911792        -2.130624         0.243306
 H         3.904529         0.416843         1.872101
