19
Iteration:  3239
 C        -0.071449        -0.118374        -0.108606
 C         1.453068         0.144464         0.006188
 C         2.286631         1.253411        -0.820741
 C         3.671695         0.944249        -0.343839
 C         4.133874        -0.361049        -1.021142
 C         3.380560        -1.180606         0.104069
 O         2.040501        -1.313501        -0.263642
 C         3.320473         0.226384         1.048762
 O         1.955811         0.435544         1.285674
 H        -0.224107        -1.177331         0.301351
 H        -0.582853         0.697165         0.451777
 H        -0.530721         0.075934        -1.122817
 H         2.091472         1.139972        -1.853642
 H         1.805266         2.147299        -0.534670
 H         4.321572         1.834324        -0.487822
 H         3.778247        -0.437992        -2.078803
 H         5.274891        -0.582255        -0.868502
 H         3.749525        -2.156400         0.590658
 H         4.000633         0.431362         1.959995
