19
Iteration:  4604
 C        -0.057858         0.018480        -0.132412
 C         1.430579         0.092471         0.008562
 C         2.218431         1.202625        -0.862161
 C         3.620526         0.988941        -0.332704
 C         4.194646        -0.321778        -1.020188
 C         3.437679        -1.090968         0.155269
 O         2.034291        -1.397370        -0.216030
 C         3.372462         0.187848         0.995394
 O         1.953430         0.373925         1.288660
 H        -0.381659        -0.815872         0.594072
 H        -0.540183         0.945988         0.289062
 H        -0.398925        -0.332233        -1.118842
 H         2.096242         1.179154        -1.963090
 H         1.783975         2.204639        -0.629142
 H         4.111838         1.938423        -0.399497
 H         3.807391        -0.502914        -1.987271
 H         5.201577        -0.595709        -1.120942
 H         3.739369        -2.109400         0.564785
 H         3.904796         0.353885         1.955959
