19
Iteration:  4483charge 0 multiplicity 1
 C        -0.073727         0.012457        -0.174755
 C         1.460831         0.015882         0.041344
 C         2.173954         1.103983        -0.850155
 C         3.666212         1.006804        -0.450772
 C         4.228043        -0.330530        -0.955354
 C         3.403982        -1.145418         0.091764
 O         1.945046        -1.264062        -0.276157
 C         3.407428         0.218317         1.002752
 O         1.971323         0.393899         1.430355
 H        -0.573858        -0.703121         0.558100
 H        -0.597416         1.021587        -0.006483
 H        -0.204186        -0.506160        -1.220470
 H         1.814860         0.989472        -1.947022
 H         1.842653         2.140710        -0.529992
 H         4.254064         1.902640        -0.456892
 H         4.069685        -0.560734        -1.953947
 H         5.307076        -0.432957        -0.782031
 H         3.768660        -2.068297         0.666501
 H         4.176606         0.386751         1.836840
