19
Iteration:  3716
 C        -0.055204        -0.052697         0.103033
 C         1.339703         0.066450        -0.021481
 C         2.191555         1.189774        -1.003886
 C         3.605768         0.956830        -0.437981
 C         4.386123        -0.397672        -0.911885
 C         3.385573        -1.131315         0.153230
 O         2.030906        -1.156323        -0.380112
 C         3.347503         0.205446         0.997419
 O         1.906566         0.377759         1.342957
 H        -0.230503        -0.793009         0.899912
 H        -0.670869         0.924545         0.190366
 H        -0.364240        -0.704294        -0.833902
 H         2.176862         0.844568        -2.028487
 H         1.863557         2.146476        -0.814870
 H         4.228270         1.821151        -0.282400
 H         4.301202        -0.797911        -2.018328
 H         5.434863        -0.452868        -0.489717
 H         3.630312        -2.125368         0.601921
 H         3.936629         0.385009         1.908591
