19
Iteration:  1189charge 0 multiplicity 1
 C        -0.034646        -0.071396        -0.144753
 C         1.455937         0.083603         0.031640
 C         2.177593         1.134777        -0.765259
 C         3.589268         0.910645        -0.421166
 C         4.216861        -0.383038        -0.956543
 C         3.349471        -1.095426         0.137898
 O         2.033890        -1.198039        -0.278610
 C         3.360520         0.154890         0.942369
 O         1.972291         0.472405         1.338717
 H        -0.352930        -0.746382         0.700065
 H        -0.565858         0.816162        -0.180786
 H        -0.151189        -0.652547        -1.089876
 H         2.004305         1.055215        -1.876638
 H         2.042006         2.162517        -0.456970
 H         4.303856         1.715041        -0.217515
 H         3.795940        -0.604333        -1.961078
 H         5.328268        -0.273720        -1.000812
 H         3.724262        -2.117269         0.545939
 H         4.111766         0.277939         1.773478
