19
Iteration:  1708
 C        -0.057160        -0.069122        -0.058857
 C         1.466107         0.097303        -0.010282
 C         2.130387         1.106710        -0.903837
 C         3.631152         0.954475        -0.405465
 C         4.214683        -0.380858        -0.961562
 C         3.402656        -1.109057         0.115886
 O         2.006175        -1.217244        -0.261144
 C         3.365719         0.172899         1.044009
 O         2.004185         0.485219         1.313768
 H        -0.420115        -0.956561         0.594901
 H        -0.669266         0.788066         0.167454
 H        -0.295047        -0.161460        -1.145539
 H         2.104591         0.888386        -1.917568
 H         1.776148         2.064176        -0.672442
 H         4.318964         1.889423        -0.463368
 H         3.896173        -0.854302        -1.903582
 H         5.220131        -0.640830        -0.712436
 H         3.848385        -2.104103         0.471592
 H         3.934880         0.364960         1.986743
