19
Iteration:  2472
 C        -0.106048         0.083878         0.043700
 C         1.444231         0.003525        -0.020404
 C         2.157979         1.081002        -0.985014
 C         3.577738         0.970303        -0.397411
 C         4.309634        -0.306453        -0.883183
 C         3.427435        -1.131506         0.114572
 O         2.043947        -1.263098        -0.291257
 C         3.282574         0.230878         0.921627
 O         1.965183         0.358346         1.336616
 H        -0.347654        -0.822156         0.708897
 H        -0.139449         1.007143         0.578643
 H        -0.460912        -0.019271        -0.980415
 H         2.123823         0.849689        -2.022118
 H         1.676755         2.003280        -0.800911
 H         3.993571         1.916271        -0.517792
 H         4.343298        -0.688773        -1.953369
 H         5.284746        -0.414834        -0.467561
 H         3.894292        -2.063950         0.565240
 H         4.080872         0.354179         1.720325
