19
Iteration:  3216charge 0 multiplicity 1
 C        -0.015232        -0.041119         0.008387
 C         1.474960         0.069223        -0.043113
 C         2.202185         1.152123        -0.896747
 C         3.628942         0.919261        -0.326585
 C         4.227404        -0.386591        -0.959420
 C         3.390063        -1.084044         0.155338
 O         2.040544        -1.158447        -0.317834
 C         3.317500         0.141705         0.971938
 O         1.931826         0.397247         1.270624
 H        -0.226487        -1.094941         0.416798
 H        -0.448495         0.776538         0.586300
 H        -0.510000         0.105788        -0.981016
 H         2.100166         1.191592        -1.984277
 H         1.668036         1.961826        -0.522139
 H         4.030628         1.944109        -0.196440
 H         3.797138        -0.581021        -2.009110
 H         5.337056        -0.651987        -0.839828
 H         3.746008        -2.136920         0.520465
 H         3.962552         0.247213         1.928381
