19
Iteration:  4577charge 0 multiplicity 1
 C        -0.042573         0.015119        -0.095250
 C         1.448762         0.035383         0.015142
 C         2.181653         1.071640        -0.928927
 C         3.552557         0.946206        -0.336980
 C         4.211709        -0.371002        -0.954263
 C         3.435917        -1.064499         0.099869
 O         2.017786        -1.214855        -0.309691
 C         3.362369         0.226804         0.985867
 O         1.977038         0.378463         1.399732
 H        -0.364499        -0.817525         0.481435
 H        -0.339641         0.849837         0.485699
 H        -0.408393        -0.125481        -1.097644
 H         2.177659         0.956462        -2.023485
 H         1.698925         2.035357        -0.764511
 H         4.063996         1.943557        -0.385859
 H         4.235604        -0.680489        -2.033120
 H         5.301357        -0.575013        -0.603776
 H         3.638423        -2.099547         0.329877
 H         3.995564         0.406961         1.833511
