19
Iteration:  4849
 C        -0.076585         0.002660        -0.019064
 C         1.469964         0.066211        -0.083443
 C         2.175787         1.134597        -0.881622
 C         3.591386         0.997713        -0.331441
 C         4.209991        -0.353962        -0.904635
 C         3.385901        -1.151750         0.106663
 O         2.014456        -1.226132        -0.312911
 C         3.387905         0.192761         1.000021
 O         1.987347         0.360539         1.319358
 H        -0.289685        -0.748384         0.718434
 H        -0.704700         0.890171         0.018924
 H        -0.383455        -0.282930        -1.086511
 H         2.053747         0.921567        -1.947660
 H         1.712994         2.095582        -0.664427
 H         4.315888         1.793494        -0.390476
 H         4.091219        -0.417535        -2.086081
 H         5.251448        -0.394279        -0.528927
 H         3.737077        -2.096889         0.535286
 H         4.175717         0.256313         1.776712
