19
Iteration:  3167
 C        -0.066523         0.106712         0.012093
 C         1.418069         0.038238        -0.047722
 C         2.120493         1.052354        -0.896307
 C         3.612503         0.877221        -0.306778
 C         4.373307        -0.245690        -0.875609
 C         3.350747        -1.145202         0.044117
 O         2.036047        -1.238971        -0.315736
 C         3.340440         0.170317         0.931213
 O         1.984570         0.325771         1.314744
 H        -0.352290        -0.496042         0.793656
 H        -0.255567         1.173008         0.124796
 H        -0.666974        -0.027731        -0.860768
 H         2.008311         0.773700        -1.976306
 H         1.755024         2.174042        -0.895908
 H         3.951070         1.892816        -0.286447
 H         4.315050        -0.390472        -1.934392
 H         5.342911        -0.050844        -0.505951
 H         3.691524        -2.046939         0.460777
 H         3.816685         0.179703         1.847425
