19
Iteration:  4191charge 0 multiplicity 1
 C        -0.064703        -0.016126        -0.117087
 C         1.436369         0.101148         0.001650
 C         2.170510         1.215558        -0.819364
 C         3.584441         0.932099        -0.443263
 C         4.193667        -0.407471        -0.925759
 C         3.455598        -1.128882         0.186270
 O         2.057253        -1.236765        -0.288788
 C         3.371138         0.178893         0.974414
 O         1.987740         0.374395         1.288828
 H        -0.395561        -0.951706         0.343369
 H        -0.652026         0.825700         0.338192
 H        -0.469521        -0.189545        -1.152806
 H         1.777014         1.105574        -1.883500
 H         1.814144         2.204703        -0.280692
 H         4.221197         1.781446        -0.335545
 H         3.791973        -0.698013        -1.831951
 H         5.201041        -0.300354        -0.699764
 H         3.785083        -2.059216         0.605232
 H         4.169484         0.402392         1.697379
