19
Iteration:  3639charge 0 multiplicity 1
 C        -0.052973         0.052982        -0.114158
 C         1.390706        -0.023991        -0.036477
 C         2.159263         1.086228        -0.901409
 C         3.602964         0.990086        -0.466863
 C         4.198205        -0.399916        -0.954726
 C         3.446023        -1.098159         0.166051
 O         2.072947        -1.246947        -0.259683
 C         3.344488         0.229144         1.062967
 O         1.992804         0.364146         1.381328
 H        -0.555508        -0.718296         0.525739
 H        -0.343534         1.130818         0.122674
 H        -0.493629         0.083268        -1.209135
 H         2.033741         1.005770        -1.984062
 H         1.674111         2.014593        -0.674015
 H         4.164113         1.909721        -0.411004
 H         3.865425        -0.728337        -2.044191
 H         5.326034        -0.200822        -0.912763
 H         3.953618        -1.878190         0.745500
 H         3.984202         0.289647         1.920103
