19
Iteration:  1764charge 0 multiplicity 1
 C        -0.075025         0.055560        -0.054215
 C         1.479373         0.017195        -0.086417
 C         2.165297         1.061209        -0.872626
 C         3.586595         0.915809        -0.387004
 C         4.212258        -0.294124        -0.979932
 C         3.423448        -1.157112         0.194660
 O         2.054185        -1.248042        -0.237018
 C         3.332412         0.225530         0.970461
 O         1.977984         0.403749         1.310223
 H        -0.531495        -0.337093         0.939563
 H        -0.289693         1.117185        -0.190820
 H        -0.512823        -0.578772        -0.830046
 H         2.104347         0.908379        -1.875073
 H         1.766635         2.041286        -0.670370
 H         4.264846         1.863137        -0.456537
 H         3.889410        -0.546666        -2.029558
 H         5.260903        -0.446372        -0.945808
 H         3.894052        -2.058607         0.673312
 H         3.870272         0.481095         1.881035
