19
Iteration:   899
 C        -0.051571         0.071078        -0.107531
 C         1.540787        -0.040964        -0.064923
 C         2.163825         1.002277        -0.858292
 C         3.586416         1.002766        -0.446709
 C         4.123490        -0.315371        -0.912642
 C         3.467566        -1.079114         0.224820
 O         1.991401        -1.322537        -0.229260
 C         3.354814         0.255427         1.042398
 O         2.008360         0.438920         1.256128
 H        -0.734122        -0.766292         0.387758
 H        -0.266964         0.965880         0.376661
 H        -0.405519         0.085383        -1.172767
 H         2.170524         0.803561        -2.020316
 H         1.653142         1.890753        -0.627194
 H         4.192936         2.000725        -0.540605
 H         3.848989        -0.450008        -1.955641
 H         5.251002        -0.559962        -0.837789
 H         3.846323        -2.045893         0.527765
 H         3.948041         0.285302         1.994775
