19
Iteration:   363
 C        -0.100083        -0.116050        -0.100865
 C         1.397079         0.167232         0.055158
 C         2.205982         1.099045        -0.758185
 C         3.612907         0.907063        -0.414783
 C         4.188966        -0.411196        -1.037675
 C         3.444930        -1.083931         0.120442
 O         2.052245        -1.244439        -0.299538
 C         3.319064         0.182331         0.999520
 O         2.022221         0.507798         1.341489
 H        -0.296866        -1.011339         0.366500
 H        -0.940148         0.739976         0.051795
 H        -0.075393        -0.203197        -1.172944
 H         1.983600         0.860616        -1.802584
 H         1.808157         2.135812        -0.661894
 H         4.187705         1.899355        -0.253141
 H         4.006093        -0.559922        -2.115050
 H         5.243483        -0.355765        -0.878173
 H         3.866213        -1.891909         0.578741
 H         3.923693         0.069331         1.940956
