19
Iteration:  2287
 C        -0.027815        -0.081953        -0.135307
 C         1.425006         0.131489        -0.026330
 C         2.160889         1.244535        -0.832294
 C         3.615565         0.886688        -0.398589
 C         4.126707        -0.439318        -0.966576
 C         3.379464        -1.159751         0.210384
 O         2.092634        -1.210115        -0.338677
 C         3.380708         0.251813         1.060533
 O         2.000926         0.406880         1.334620
 H        -0.222149        -0.996701         0.494748
 H        -0.635809         0.694273         0.364268
 H        -0.333826        -0.336891        -1.194439
 H         1.844254         1.108656        -1.854213
 H         1.748031         2.238545        -0.522911
 H         4.133783         1.751848        -0.629804
 H         3.799172        -0.589081        -2.028103
 H         5.181229        -0.546073        -0.986209
 H         3.968624        -2.020229         0.588444
 H         4.019292         0.375033         1.978268
