19
Iteration:  1127charge 0 multiplicity 1
 C        -0.058724         0.072318         0.005752
 C         1.423462        -0.005612         0.013014
 C         2.124102         1.041942        -0.880750
 C         3.614720         0.928244        -0.387034
 C         4.353104        -0.347086        -0.875418
 C         3.365509        -1.074856         0.079329
 O         2.023400        -1.261449        -0.416340
 C         3.355164         0.245583         1.026796
 O         1.989086         0.429785         1.302167
 H        -0.536799        -0.682263         0.757250
 H        -0.309829         0.977637         0.512453
 H        -0.527746        -0.116802        -0.930576
 H         2.095430         0.578215        -1.960158
 H         1.519510         1.930963        -0.882737
 H         4.029009         1.879396        -0.290668
 H         4.237480        -0.533077        -1.927238
 H         5.392116        -0.403156        -0.441975
 H         3.527012        -2.152848         0.399223
 H         3.971391         0.330510         1.889820
