19
Iteration:  2735charge 0 multiplicity 1
 C        -0.116409        -0.042738        -0.050990
 C         1.388721         0.108521         0.013918
 C         2.164088         1.135575        -0.869882
 C         3.630984         0.934007        -0.523408
 C         4.327748        -0.413899        -0.869683
 C         3.366719        -1.080836         0.156146
 O         2.027288        -1.237387        -0.334237
 C         3.352678         0.185958         0.957627
 O         1.968078         0.387154         1.343692
 H        -0.340539        -0.380722         0.955845
 H        -0.410103         1.044435         0.098362
 H        -0.277637        -0.730084        -0.878828
 H         2.025911         1.112892        -1.981961
 H         1.859132         2.195883        -0.609214
 H         4.087288         1.908173        -0.244653
 H         4.271236        -0.676914        -1.978006
 H         5.469129        -0.297229        -0.704680
 H         3.648602        -1.979000         0.761385
 H         4.084729         0.310373         1.746186
