19
Iteration:  1019
 C        -0.089404         0.090172        -0.068883
 C         1.398104         0.050592         0.051038
 C         2.129579         1.043269        -0.875745
 C         3.654507         0.979283        -0.392180
 C         4.243434        -0.329592        -0.894379
 C         3.422789        -1.091259         0.124416
 O         2.025483        -1.339068        -0.303035
 C         3.353634         0.204141         0.967803
 O         2.008959         0.401653         1.307960
 H        -0.687997        -0.647881         0.694461
 H        -0.293935         1.133371        -0.218672
 H        -0.140929        -0.327855        -1.104885
 H         1.932099         0.760635        -1.992916
 H         1.688745         1.978201        -0.681181
 H         4.063191         2.038403        -0.518136
 H         4.171043        -0.384377        -1.957987
 H         5.350686        -0.331406        -0.689430
 H         3.770778        -1.971912         0.672615
 H         3.966296         0.214378         1.860634
