19
Iteration:  4869charge 0 multiplicity 1
 C        -0.017103        -0.071616        -0.073600
 C         1.413452         0.071600         0.048091
 C         2.209419         1.166990        -0.823541
 C         3.651513         0.966318        -0.417181
 C         4.239640        -0.333218        -0.974118
 C         3.402758        -1.138376         0.105454
 O         2.032117        -1.217353        -0.295630
 C         3.319609         0.198151         0.997027
 O         1.909276         0.389079         1.313867
 H        -0.211458        -0.781837         0.690340
 H        -0.292599         0.965760         0.072506
 H        -0.334718        -0.266331        -1.134004
 H         2.248793         1.081724        -1.881302
 H         1.777737         2.171665        -0.630617
 H         4.335216         1.771688        -0.263093
 H         3.602659        -0.684690        -1.895259
 H         5.357934        -0.657164        -1.081274
 H         3.780610        -2.046211         0.577263
 H         3.762008         0.208295         1.993691
