19
Iteration:  2476
 C        -0.100980         0.062281         0.053394
 C         1.430822         0.032400        -0.027517
 C         2.189093         1.048980        -0.996114
 C         3.561589         0.974676        -0.409025
 C         4.331371        -0.308657        -0.864574
 C         3.439557        -1.101978         0.098316
 O         2.030738        -1.242511        -0.285225
 C         3.343129         0.192126         0.931157
 O         1.936647         0.354898         1.336157
 H        -0.357179        -0.735216         0.755825
 H        -0.274719         1.009688         0.630922
 H        -0.529546        -0.039360        -0.941408
 H         1.980833         0.861218        -2.083055
 H         1.558342         1.976788        -0.931237
 H         4.082962         1.993259        -0.429377
 H         4.282345        -0.693322        -1.845203
 H         5.363339        -0.448924        -0.467245
 H         3.783481        -2.065838         0.412728
 H         4.018125         0.370131         1.738861
