19
Iteration:  4792charge 0 multiplicity 1
 C        -0.059844        -0.000936         0.073800
 C         1.462452         0.065384        -0.026026
 C         2.227166         1.154933        -0.915627
 C         3.578156         1.008376        -0.379918
 C         4.184462        -0.346550        -0.897429
 C         3.416374        -1.104054         0.106489
 O         2.056793        -1.264320        -0.345831
 C         3.311152         0.191763         1.069136
 O         1.952437         0.349710         1.222534
 H        -0.535826        -0.816375         0.671018
 H        -0.258937         1.065415         0.289274
 H        -0.296323        -0.267070        -1.014785
 H         1.931495         0.834809        -1.875997
 H         1.779814         2.183666        -0.779112
 H         4.363111         1.762214        -0.268291
 H         4.079931        -0.625816        -2.035420
 H         5.340897        -0.605523        -0.734687
 H         3.852066        -2.058493         0.436081
 H         3.877230         0.360850         2.001404
