19
Iteration:  1221
 C        -0.066446        -0.048811         0.005376
 C         1.436737         0.069671        -0.018874
 C         2.203506         1.137135        -0.919660
 C         3.662813         1.009081        -0.424883
 C         4.259253        -0.374358        -0.861183
 C         3.324019        -1.096080         0.119683
 O         2.001008        -1.170394        -0.340597
 C         3.334585         0.202192         0.978290
 O         1.969756         0.329547         1.320245
 H        -0.301619        -0.767936         0.838745
 H        -0.481581         0.883098         0.231059
 H        -0.282242        -0.508059        -0.995925
 H         1.959276         0.897346        -1.932494
 H         1.962964         2.154109        -0.743546
 H         4.377166         1.872248        -0.385366
 H         4.025491        -0.793078        -1.869468
 H         5.291303        -0.441969        -0.574864
 H         3.655322        -2.048910         0.517282
 H         4.126297         0.251140         1.777372
