19
Iteration:   342charge 0 multiplicity 1
 C        -0.022492        -0.014268        -0.075981
 C         1.440453         0.013367         0.002098
 C         2.124381         1.113384        -0.896624
 C         3.620486         0.983432        -0.423406
 C         4.239222        -0.336370        -0.907244
 C         3.431621        -1.153474         0.120201
 O         1.991619        -1.254625        -0.243403
 C         3.378067         0.267839         0.969141
 O         1.998947         0.352180         1.338109
 H        -0.547663        -0.804969         0.350288
 H        -0.449661         1.017449         0.414477
 H        -0.445341         0.104057        -1.070183
 H         2.003395         0.919892        -1.983405
 H         1.681400         2.127138        -0.720650
 H         4.062682         2.062750        -0.429138
 H         3.978729        -0.535346        -1.975509
 H         5.308016        -0.466530        -0.690019
 H         3.661344        -2.145368         0.435980
 H         4.082698         0.493602         1.783765
