19
Iteration:   355charge 0 multiplicity 1
 C        -0.117154        -0.040870        -0.130162
 C         1.437810         0.102279         0.102398
 C         2.106967         1.094074        -0.832645
 C         3.630962         0.976393        -0.351404
 C         4.226568        -0.362673        -0.974924
 C         3.359342        -1.082475         0.129089
 O         2.066629        -1.293807        -0.300561
 C         3.390050         0.173854         0.916023
 O         2.007633         0.476439         1.337039
 H        -0.350632        -0.979929         0.384573
 H        -0.728699         0.835046         0.363842
 H        -0.119071        -0.127229        -1.236475
 H         1.954994         0.836033        -1.919993
 H         1.671639         2.083374        -0.597317
 H         4.408443         1.823487        -0.340420
 H         3.995555        -0.666715        -2.016018
 H         5.369158        -0.466723        -0.884809
 H         3.876118        -1.933777         0.726987
 H         4.041011         0.177483         1.723126
