19
Iteration:  3888
 C        -0.141016         0.041413        -0.021586
 C         1.388172         0.039196         0.018705
 C         2.186866         1.091954        -0.953310
 C         3.636381         0.975825        -0.352286
 C         4.283185        -0.261609        -0.926329
 C         3.421572        -1.063606         0.061941
 O         1.963550        -1.299314        -0.251711
 C         3.394590         0.180137         0.919938
 O         1.986503         0.322538         1.333765
 H        -0.363647        -0.441389         0.854645
 H        -0.370017         1.079560         0.136861
 H        -0.313166        -0.513829        -0.956204
 H         2.172262         0.766381        -2.027874
 H         1.754916         2.227798        -0.749714
 H         4.206323         1.906119        -0.347827
 H         4.343815        -0.416635        -1.978302
 H         5.342071        -0.336795        -0.488712
 H         3.696296        -2.003975         0.518589
 H         4.010137         0.143400         1.844850
