19
Iteration:  1716charge 0 multiplicity 1
 C        -0.080861        -0.042836        -0.141195
 C         1.451637         0.057212         0.006717
 C         2.165681         1.056533        -0.870824
 C         3.572465         0.949067        -0.418999
 C         4.211774        -0.392905        -0.929267
 C         3.386503        -1.082309         0.140839
 O         1.956304        -1.197851        -0.239209
 C         3.453889         0.195549         1.009077
 O         2.049027         0.454892         1.331949
 H        -0.417463        -0.843637         0.480986
 H        -0.540291         0.912338         0.158405
 H        -0.233737        -0.406605        -1.190613
 H         2.069668         0.992948        -2.035216
 H         1.708080         2.029400        -0.590398
 H         4.166418         1.796704        -0.411629
 H         3.905659        -0.662112        -1.911742
 H         5.324833        -0.305257        -0.889027
 H         3.764852        -2.069738         0.445576
 H         3.956749         0.389033         1.993178
