19
Iteration:  1270charge 0 multiplicity 1
 C        -0.110626         0.121496         0.012572
 C         1.436515         0.041799        -0.023162
 C         2.185490         1.041047        -0.929957
 C         3.581323         0.983621        -0.403240
 C         4.294557        -0.309437        -0.914901
 C         3.398139        -1.089274         0.115953
 O         2.022481        -1.251174        -0.295407
 C         3.339993         0.168654         0.979064
 O         1.965757         0.282856         1.312487
 H        -0.461231        -0.731506         0.553309
 H        -0.340762         1.046935         0.655538
 H        -0.549671         0.206692        -0.984736
 H         2.287478         0.697539        -2.052294
 H         1.717287         2.090675        -0.953958
 H         4.199664         1.884686        -0.391906
 H         4.288207        -0.330832        -2.021041
 H         5.367025        -0.324129        -0.521193
 H         3.894214        -2.022868         0.640207
 H         3.999260         0.300220         1.850189
