19
Iteration:    59charge 0 multiplicity 1
 C        -0.108088        -0.013801         0.069405
 C         1.409853         0.060384        -0.005197
 C         2.185112         1.081272        -0.948055
 C         3.618886         0.929486        -0.453488
 C         4.258402        -0.377667        -0.953933
 C         3.473052        -1.139582         0.156597
 O         2.081067        -1.333818        -0.275314
 C         3.291805         0.264480         0.958507
 O         1.945541         0.526610         1.287660
 H        -0.320221        -0.537588         1.042193
 H        -0.573835         0.954245         0.068064
 H        -0.545292        -0.593153        -0.766008
 H         2.016270         0.974143        -2.009463
 H         1.749638         2.063785        -0.727922
 H         4.251717         1.809359        -0.353633
 H         4.180469        -0.629954        -2.052907
 H         5.345302        -0.393541        -0.833504
 H         3.700191        -2.059722         0.775896
 H         3.944901         0.499630         1.855375
