19
Iteration:  1464
 C        -0.041867        -0.096706        -0.136721
 C         1.425480         0.144200         0.036715
 C         2.133034         1.183070        -0.788455
 C         3.628950         0.937852        -0.431783
 C         4.190659        -0.422967        -0.918453
 C         3.405812        -1.074815         0.140734
 O         1.986587        -1.213156        -0.260389
 C         3.370246         0.186531         0.944516
 O         2.023441         0.418432         1.325033
 H        -0.273090        -1.202346         0.174584
 H        -0.675872         0.778998         0.243797
 H        -0.107644        -0.028932        -1.236705
 H         2.046769         1.008744        -1.909523
 H         1.696669         2.106230        -0.574873
 H         4.212952         1.818954        -0.284785
 H         4.092373        -0.790966        -1.922225
 H         5.329723        -0.477441        -0.726513
 H         3.693310        -2.113681         0.508278
 H         4.196210         0.162763         1.625244
