19
Iteration:  2965charge 0 multiplicity 1
 C        -0.019724        -0.035831        -0.111562
 C         1.484449         0.146864        -0.052218
 C         2.197880         1.217370        -0.824792
 C         3.678918         0.985184        -0.313546
 C         4.169897        -0.356034        -1.048887
 C         3.429069        -1.101542         0.166941
 O         1.993423        -1.325457        -0.163802
 C         3.305756         0.191127         0.978162
 O         1.921506         0.337461         1.251050
 H        -0.360412        -0.736355         0.688502
 H        -0.502629         1.000057        -0.062210
 H        -0.362651        -0.532116        -1.046067
 H         2.200149         1.158156        -1.949568
 H         1.801231         2.292491        -0.385128
 H         4.329301         1.895922        -0.327466
 H         3.830644        -0.521468        -2.033826
 H         5.254420        -0.693501        -1.077537
 H         3.990921        -2.021740         0.509487
 H         3.944041         0.225036         1.847328
