19
Iteration:  4910charge 0 multiplicity 1
 C        -0.038061         0.007470        -0.069422
 C         1.473631         0.041412         0.034832
 C         2.126833         1.167051        -0.835798
 C         3.659337         1.027288        -0.383633
 C         4.270536        -0.356505        -0.873738
 C         3.396252        -1.163022         0.110685
 O         1.988063        -1.248450        -0.295044
 C         3.344739         0.159744         0.917853
 O         1.965621         0.384621         1.325993
 H        -0.526607        -0.949460         0.354718
 H        -0.363434         1.068289         0.168861
 H        -0.255251        -0.247310        -1.141420
 H         1.828864         0.848186        -1.868551
 H         1.519029         2.140512        -0.735389
 H         4.194123         2.025751        -0.563487
 H         4.126289        -0.515271        -1.900229
 H         5.432056        -0.323429        -0.743536
 H         3.579596        -2.164630         0.528349
 H         4.129827         0.163553         1.686627
