19
Iteration:  1279
 C        -0.025728         0.128780         0.003480
 C         1.394680         0.009133         0.006146
 C         2.176476         1.055685        -0.909681
 C         3.614722         0.960324        -0.350317
 C         4.295779        -0.289989        -0.937719
 C         3.379128        -1.086901         0.097060
 O         1.992409        -1.257946        -0.316026
 C         3.357072         0.250689         0.992521
 O         1.958087         0.299660         1.333053
 H        -0.345681        -0.900458         0.269197
 H        -0.553096         0.928960         0.479226
 H        -0.294527         0.101522        -1.036644
 H         2.022825         0.616318        -1.994416
 H         1.742469         2.072213        -0.888856
 H         4.148648         1.885183        -0.374928
 H         4.249238        -0.715050        -1.944789
 H         5.426304        -0.326665        -0.706190
 H         3.599572        -2.195248         0.580168
 H         4.209547         0.359459         1.615716
