19
Iteration:  1194charge 0 multiplicity 1
 C        -0.067654        -0.118539        -0.146343
 C         1.422558         0.161112         0.019464
 C         2.158058         1.157236        -0.788812
 C         3.599876         0.896064        -0.359472
 C         4.241765        -0.394346        -1.025035
 C         3.374517        -1.162847         0.134526
 O         2.037783        -1.172634        -0.281400
 C         3.352340         0.176805         0.983508
 O         1.985067         0.457430         1.337116
 H        -0.373023        -0.722326         0.705316
 H        -0.542784         0.934539        -0.035027
 H        -0.049683        -0.689432        -1.062123
 H         1.845169         0.956871        -1.882534
 H         2.108096         2.254298        -0.565076
 H         4.286946         1.750470        -0.307149
 H         3.922980        -0.774561        -2.000574
 H         5.342546        -0.227870        -0.832406
 H         3.753922        -2.099807         0.615621
 H         4.081377         0.306170         1.745137
