19
Iteration:  2177charge 0 multiplicity 1
 C        -0.082767        -0.051025        -0.050331
 C         1.487520         0.095883         0.004582
 C         2.065954         1.200833        -0.892420
 C         3.643943         0.903014        -0.355741
 C         4.308404        -0.392909        -0.950576
 C         3.340819        -1.146492         0.213364
 O         2.029758        -1.223556        -0.319489
 C         3.370716         0.218402         0.927032
 O         1.976537         0.396398         1.307464
 H        -0.327901        -0.655979         0.816706
 H        -0.710256         0.912733         0.002538
 H        -0.332738        -0.509007        -1.063260
 H         2.018157         1.267593        -1.981868
 H         1.834766         2.134401        -0.300573
 H         4.180106         1.789141        -0.367067
 H         4.123255        -0.737187        -2.036983
 H         5.381278        -0.329856        -0.794119
 H         3.759420        -2.152539         0.567332
 H         4.079135         0.408911         1.683420
