19
Iteration:  2864charge 0 multiplicity 1
 C        -0.054045        -0.105246        -0.042669
 C         1.464946         0.113133         0.003566
 C         2.253598         1.152645        -0.928245
 C         3.660475         0.974049        -0.332180
 C         4.145448        -0.345693        -0.917456
 C         3.397369        -1.123131         0.129749
 O         2.005513        -1.250845        -0.287977
 C         3.298637         0.184527         1.010849
 O         1.959452         0.434970         1.263725
 H        -0.138831        -1.068691         0.512163
 H        -0.466674         0.849670         0.423231
 H        -0.489746        -0.185453        -1.062307
 H         2.150565         0.869207        -2.030951
 H         1.877069         2.286875        -0.757163
 H         4.335590         1.862299        -0.295066
 H         3.869758        -0.673612        -1.958897
 H         5.225335        -0.471222        -0.806102
 H         3.782448        -2.108688         0.647746
 H         4.136364         0.319682         1.717407
