19
Iteration:  4961charge 0 multiplicity 1
 C        -0.015509         0.038040         0.081622
 C         1.500772         0.081739        -0.018749
 C         2.159481         1.141790        -0.905502
 C         3.630401         0.989828        -0.318912
 C         4.278401        -0.384016        -0.874615
 C         3.344842        -1.052421         0.081250
 O         2.020765        -1.322275        -0.383145
 C         3.278899         0.182609         1.032016
 O         1.950535         0.367864         1.203188
 H        -0.145768        -0.898574         0.706497
 H        -0.447709         1.023655         0.439678
 H        -0.465214        -0.182975        -0.858118
 H         2.087891         0.911827        -2.022603
 H         1.695111         2.107917        -0.777492
 H         4.255445         1.961795        -0.381350
 H         4.138084        -0.514951        -2.000156
 H         5.307564        -0.450085        -0.604754
 H         3.668346        -1.964958         0.617043
 H         3.958190         0.130369         1.913803
