19
Iteration:  4643charge 0 multiplicity 1
 C        -0.100127        -0.025672        -0.057001
 C         1.472514         0.167523         0.036237
 C         2.107957         1.126633        -0.869153
 C         3.622702         0.973687        -0.387850
 C         4.278280        -0.387714        -0.915846
 C         3.376082        -1.110920         0.129501
 O         1.991027        -1.261898        -0.394871
 C         3.372645         0.202118         0.991540
 O         1.997194         0.359979         1.353551
 H        -0.366836        -0.716970         0.696207
 H        -0.662839         0.890486         0.009370
 H        -0.110712        -0.553630        -1.061875
 H         2.045891         0.891163        -1.971165
 H         1.832082         2.142602        -0.528600
 H         4.113058         1.993656        -0.351581
 H         4.023176        -0.755610        -1.989376
 H         5.505870        -0.321000        -0.776132
 H         3.888215        -1.919284         0.735856
 H         4.078278         0.258013         1.852855
