19
Iteration:  2043charge 0 multiplicity 1
 C        -0.015637        -0.079458        -0.023524
 C         1.484390         0.097303        -0.029470
 C         2.190875         1.113980        -0.879398
 C         3.701952         0.938503        -0.363769
 C         4.209249        -0.377039        -0.963333
 C         3.340129        -1.102638         0.148905
 O         1.989058        -1.251905        -0.295271
 C         3.350621         0.229610         0.985189
 O         1.943766         0.454648         1.284949
 H        -0.281860        -1.155555         0.366699
 H        -0.628803         0.554990         0.595977
 H        -0.603651        -0.123054        -0.930593
 H         2.100329         0.978302        -1.982157
 H         1.902625         2.134425        -0.698388
 H         4.206821         1.935707        -0.489654
 H         3.932097        -0.521059        -1.978424
 H         5.302597        -0.411991        -0.745978
 H         3.622379        -1.951617         0.795805
 H         4.105707         0.302144         1.819739
