19
Iteration:  2618charge 0 multiplicity 1
 C        -0.157066        -0.031830         0.105216
 C         1.497285         0.050063        -0.068267
 C         2.173482         1.026606        -0.919278
 C         3.646870         0.962094        -0.401618
 C         4.296162        -0.370622        -0.866027
 C         3.422387        -1.079864         0.170285
 O         2.027516        -1.216140        -0.370432
 C         3.319631         0.258220         0.934175
 O         1.935098         0.408135         1.257140
 H        -0.316606        -0.893631         0.789266
 H        -0.411200         0.871221         0.812414
 H        -0.758105        -0.069921        -0.864780
 H         2.183502         1.020321        -2.038497
 H         1.939965         2.083466        -0.703363
 H         4.340350         1.892446        -0.552605
 H         4.158128        -0.649772        -1.875998
 H         5.368260        -0.562650        -0.560937
 H         3.647045        -2.063409         0.528447
 H         3.782696         0.351499         1.901610
