19
Iteration:  1187charge 0 multiplicity 1
 C        -0.014083        -0.064383        -0.136549
 C         1.466941         0.054715         0.039592
 C         2.185381         1.132030        -0.774550
 C         3.593984         0.911276        -0.439704
 C         4.205545        -0.376227        -0.931243
 C         3.354766        -1.082006         0.142348
 O         2.028123        -1.209138        -0.278691
 C         3.361062         0.152793         0.931763
 O         1.969346         0.471978         1.339852
 H        -0.349308        -0.716332         0.648317
 H        -0.641933         0.865294        -0.246426
 H        -0.216478        -0.624603        -1.104822
 H         2.089021         1.112086        -1.798981
 H         1.931954         2.137669        -0.404975
 H         4.309217         1.766861        -0.221910
 H         3.777357        -0.541626        -1.951847
 H         5.258931        -0.351805        -1.054853
 H         3.659657        -2.032025         0.481113
 H         4.100441         0.269865         1.784427
