19
Iteration:  4711
 C        -0.102305         0.017814         0.000353
 C         1.408867         0.039463        -0.037681
 C         2.198303         1.106260        -0.918333
 C         3.625129         0.995312        -0.346450
 C         4.221294        -0.358616        -0.956910
 C         3.436433        -1.091845         0.123724
 O         2.046431        -1.216665        -0.302707
 C         3.370834         0.213022         1.038292
 O         1.968760         0.317797         1.270790
 H        -0.609167        -0.617592         0.709143
 H        -0.477203         0.984900         0.326449
 H        -0.495509        -0.109036        -1.011638
 H         2.028488         0.931363        -2.003562
 H         1.770079         2.007391        -0.555363
 H         4.315922         1.811821        -0.495799
 H         3.924067        -0.629749        -1.940610
 H         5.429127        -0.379849        -0.708827
 H         3.699300        -2.106442         0.488069
 H         3.993307         0.257089         1.949592
