19
Iteration:  1245
 C        -0.080608         0.133010         0.112830
 C         1.415839        -0.005799        -0.064915
 C         2.137682         1.080477        -0.917636
 C         3.594205         0.948444        -0.335881
 C         4.356561        -0.343139        -0.888577
 C         3.420614        -1.145562         0.076073
 O         2.056246        -1.284882        -0.353764
 C         3.306910         0.193982         1.015615
 O         1.906407         0.414717         1.227655
 H        -0.317946        -0.730910         0.828580
 H        -0.325544         1.043785         0.540177
 H        -0.475583        -0.099918        -0.864201
 H         2.171587         0.909110        -2.079440
 H         1.740928         2.070082        -0.758561
 H         4.221805         1.802759        -0.235347
 H         4.206158        -0.431543        -1.986535
 H         5.453829        -0.353386        -0.587606
 H         3.876290        -2.194978         0.399230
 H         3.948493         0.394193         1.870043
