19
Iteration:  1798charge 0 multiplicity 1
 C        -0.036015        -0.113302         0.113440
 C         1.378146         0.131494        -0.032112
 C         2.239646         1.106030        -0.965210
 C         3.674869         0.876418        -0.490301
 C         4.325130        -0.351822        -0.852260
 C         3.355672        -1.124371         0.111283
 O         1.978918        -1.137302        -0.321307
 C         3.302138         0.178231         1.001140
 O         1.947098         0.416150         1.276449
 H        -0.221287        -0.706551         1.048678
 H        -0.575971         0.888066         0.146319
 H        -0.482018        -0.618461        -0.753173
 H         2.148501         0.800872        -1.946415
 H         1.765100         2.040629        -0.833615
 H         4.246658         1.904759        -0.582172
 H         4.445979        -0.488441        -1.964988
 H         5.329463        -0.255259        -0.440360
 H         3.600389        -2.131958         0.551570
 H         3.771559         0.501735         1.939784
