19
Iteration:   260
 C        -0.012371        -0.110828        -0.058771
 C         1.460997         0.092590         0.026842
 C         2.163421         1.271248        -0.912386
 C         3.643538         0.933376        -0.446104
 C         4.223243        -0.438221        -0.960447
 C         3.415441        -1.113986         0.153027
 O         1.941939        -1.244412        -0.200210
 C         3.358113         0.270941         0.921965
 O         1.971373         0.391678         1.315594
 H        -0.293484        -0.911168         0.743850
 H        -0.649753         0.690805        -0.014812
 H         0.006240        -0.672816        -1.057621
 H         2.083141         1.161203        -2.008215
 H         1.740722         2.181707        -0.485274
 H         4.255714         1.776166        -0.310250
 H         4.035933        -0.787785        -1.967762
 H         5.308610        -0.350968        -0.749265
 H         3.632807        -2.121675         0.661612
 H         3.957629         0.646255         1.738432
