19
Iteration:  3827
 C        -0.037744        -0.036141        -0.007921
 C         1.458063         0.063039        -0.023001
 C         2.115932         1.234832        -0.845843
 C         3.643543         0.931356        -0.388583
 C         4.211663        -0.460070        -0.921933
 C         3.474884        -1.100100         0.127103
 O         2.020185        -1.211889        -0.299324
 C         3.322001         0.241694         1.018882
 O         1.952302         0.336211         1.217676
 H        -0.246471        -1.069830         0.543032
 H        -0.632677         0.828781         0.468384
 H        -0.480376        -0.159187        -1.015814
 H         2.035614         1.261301        -1.920288
 H         2.085605         2.182818        -0.606281
 H         4.212905         1.866105        -0.376872
 H         3.962405        -0.749930        -2.053090
 H         5.318972        -0.397763        -0.763992
 H         3.791636        -2.010527         0.677357
 H         3.853740         0.587718         1.930564
