19
Iteration:   197
 C        -0.091049         0.084783         0.002179
 C         1.424097         0.046015        -0.025378
 C         2.125026         1.061242        -0.977765
 C         3.612027         1.055281        -0.518078
 C         4.274434        -0.297696        -0.849873
 C         3.407741        -1.131382         0.121417
 O         2.004520        -1.303822        -0.159496
 C         3.329248         0.198368         0.937540
 O         2.045547         0.345575         1.304007
 H        -0.408453        -0.713225         0.768950
 H        -0.606394         0.947521         0.109469
 H        -0.400118        -0.331838        -1.002131
 H         2.003927         0.802697        -2.014843
 H         1.580025         1.999472        -0.908171
 H         4.278654         1.861290        -0.461540
 H         4.432715        -0.579283        -1.885680
 H         5.227682        -0.324352        -0.370059
 H         3.793904        -2.012170         0.446510
 H         4.040809         0.307901         1.811997
