19
Iteration:  2884
 C        -0.100924        -0.062369         0.082595
 C         1.536604         0.055334        -0.139193
 C         2.161490         1.143698        -0.896127
 C         3.634212         0.921290        -0.339250
 C         4.343305        -0.400760        -0.912433
 C         3.340816        -1.075943         0.141460
 O         2.022228        -1.215784        -0.357879
 C         3.285189         0.219710         1.010000
 O         1.941010         0.437661         1.255308
 H        -0.140753        -0.846726         0.892274
 H        -0.561121         0.869193         0.463117
 H        -0.664059        -0.316092        -0.839533
 H         2.157228         1.104857        -1.991198
 H         1.706748         2.069795        -0.537870
 H         4.337179         1.758134        -0.378457
 H         4.082610        -0.686498        -1.987508
 H         5.337898        -0.485326        -0.681172
 H         3.655303        -2.143415         0.474399
 H         3.989990         0.344630         1.939928
