19
Iteration:  4862charge 0 multiplicity 1
 C        -0.017545        -0.063275        -0.071002
 C         1.434438         0.060134         0.006879
 C         2.207659         1.172972        -0.887065
 C         3.633279         0.938622        -0.345980
 C         4.223525        -0.337508        -0.959498
 C         3.387287        -1.086397         0.139454
 O         2.000511        -1.224255        -0.311194
 C         3.301153         0.179250         0.972924
 O         1.993728         0.378271         1.326498
 H        -0.390696        -0.802207         0.665243
 H        -0.212776         1.009640         0.192506
 H        -0.358374        -0.440125        -1.048748
 H         2.172098         1.137880        -2.030233
 H         1.823154         2.134276        -0.617111
 H         4.109910         1.910597        -0.109622
 H         3.843867        -0.705393        -1.951663
 H         5.224867        -0.514354        -0.986720
 H         3.681262        -2.059881         0.558798
 H         3.883763         0.326521         1.898880
