19
Iteration:   687charge 0 multiplicity 1
 C        -0.083698         0.073190         0.018615
 C         1.460666         0.030040         0.013367
 C         2.117719         1.020350        -0.960824
 C         3.653482         0.977840        -0.474960
 C         4.305129        -0.312114        -0.852266
 C         3.402122        -1.056173         0.119911
 O         1.994576        -1.265419        -0.293620
 C         3.334085         0.209848         0.997313
 O         1.989238         0.359074         1.302334
 H        -0.572469        -0.759805         0.513951
 H        -0.582663         0.981426         0.499759
 H        -0.366785        -0.048830        -0.994422
 H         1.935559         0.747641        -1.944888
 H         1.799905         2.053284        -0.819334
 H         4.155261         1.872041        -0.555507
 H         4.392052        -0.618255        -1.922859
 H         5.298320        -0.413775        -0.413402
 H         3.640741        -2.102056         0.407632
 H         4.007789         0.299882         1.840104
