19
Iteration:  3227
 C        -0.003601        -0.067521        -0.044709
 C         1.457846         0.062931        -0.085920
 C         2.160409         1.209335        -0.812108
 C         3.704030         0.940591        -0.333390
 C         4.184143        -0.391418        -0.978391
 C         3.437127        -1.121804         0.095740
 O         2.007187        -1.221573        -0.265860
 C         3.300134         0.181348         1.012370
 O         1.904552         0.464909         1.274761
 H        -0.292621        -1.114097         0.362572
 H        -0.424856         0.563732         0.724856
 H        -0.395072        -0.093196        -1.077668
 H         2.200393         1.051024        -1.882570
 H         1.946882         2.175526        -0.505934
 H         4.516332         1.718437        -0.245029
 H         3.736428        -0.771234        -1.978560
 H         5.321560        -0.364323        -1.158374
 H         3.782051        -2.204877         0.420249
 H         3.857946         0.217986         2.038700
