19
Iteration:  3601
 C        -0.114745        -0.106840         0.058278
 C         1.419012         0.159367         0.022590
 C         2.211585         1.129563        -0.961475
 C         3.687111         0.981344        -0.444469
 C         4.316331        -0.331213        -0.854826
 C         3.329992        -1.083218         0.084515
 O         1.985509        -1.272570        -0.324448
 C         3.299311         0.212760         0.950851
 O         1.998260         0.414262         1.275319
 H        -0.240882        -1.006991         0.694373
 H        -0.490036         0.696069         0.691189
 H        -0.519367        -0.306070        -0.914805
 H         2.215173         0.601375        -1.919333
 H         1.967719         2.220139        -0.874595
 H         4.383912         1.873086        -0.413488
 H         4.367762        -0.670928        -1.824877
 H         5.278709        -0.437091        -0.384588
 H         3.472803        -2.057237         0.561021
 H         3.760118         0.112868         1.982161
