19
Iteration:   240charge 0 multiplicity 1
 C        -0.133688        -0.127455        -0.175021
 C         1.453180         0.033800        -0.041552
 C         2.161498         1.106721        -0.777572
 C         3.675042         0.956754        -0.424186
 C         4.088000        -0.403660        -0.969377
 C         3.412624        -1.080635         0.178193
 O         2.120529        -1.225765        -0.232389
 C         3.358382         0.220374         1.007880
 O         2.051947         0.522746         1.307647
 H        -0.557270        -0.619348         0.816558
 H        -0.490336         0.817856        -0.071524
 H        -0.564831        -0.577897        -1.146430
 H         1.969980         1.085980        -1.855093
 H         1.823513         2.061379        -0.359458
 H         4.147989         1.837363        -0.736253
 H         3.575015        -0.714409        -1.871583
 H         5.146226        -0.550001        -1.049356
 H         3.701404        -1.989139         0.659037
 H         4.040260         0.257385         1.917087
