19
Iteration:  3480
 C        -0.062352        -0.027013         0.013849
 C         1.444822         0.091853        -0.022924
 C         2.171178         1.141702        -0.861883
 C         3.690953         0.961045        -0.410031
 C         4.267072        -0.423052        -0.946117
 C         3.380528        -1.102509         0.219704
 O         2.050174        -1.188532        -0.330466
 C         3.364279         0.226381         0.962150
 O         1.858369         0.361691         1.221958
 H        -0.025706        -0.775475         0.739476
 H        -0.467285         0.966215         0.358200
 H        -0.438119        -0.522327        -0.873041
 H         2.008270         0.996399        -1.928163
 H         1.742640         2.058617        -0.382004
 H         4.272839         1.897813        -0.534374
 H         3.979223        -0.835785        -1.882354
 H         5.347439        -0.397737        -0.723876
 H         3.758557        -2.056007         0.706754
 H         3.926578         0.306460         1.875909
