19
Iteration:   853
 C        -0.148294        -0.138597         0.052580
 C         1.386558         0.072986         0.016544
 C         2.154177         1.146000        -0.930676
 C         3.745414         0.956040        -0.424419
 C         4.339885        -0.453216        -0.855476
 C         3.387652        -1.085345         0.174244
 O         1.991464        -1.118478        -0.401749
 C         3.312558         0.217489         0.971665
 O         1.968521         0.441262         1.288157
 H        -0.367486        -0.920602         0.802300
 H        -0.586173         0.886057         0.430510
 H        -0.589189        -0.602672        -0.904679
 H         2.011767         0.705094        -1.981638
 H         1.880417         2.162673        -1.001851
 H         4.440765         1.765974        -0.624215
 H         4.324325        -0.960001        -1.827475
 H         5.416908        -0.286423        -0.604242
 H         3.701943        -2.036386         0.680302
 H         3.990357         0.373167         1.875791
