19
Iteration:  2862
 C        -0.075239        -0.094762        -0.057645
 C         1.500453         0.121906         0.021955
 C         2.245866         1.162587        -0.925318
 C         3.653373         0.972050        -0.331861
 C         4.148721        -0.350662        -0.924731
 C         3.393514        -1.106390         0.125226
 O         2.009024        -1.264817        -0.283320
 C         3.302250         0.184118         1.009375
 O         1.955313         0.429939         1.265982
 H        -0.156186        -1.060000         0.524533
 H        -0.542104         0.775592         0.424671
 H        -0.467479        -0.156932        -1.094549
 H         2.154176         0.843072        -1.978963
 H         1.892372         2.211073        -0.809210
 H         4.382025         1.792863        -0.310831
 H         3.857152        -0.696677        -1.958601
 H         5.167678        -0.456674        -0.779759
 H         3.817005        -2.070366         0.594066
 H         4.157300         0.340235         1.747777
