19
Iteration:   454charge 0 multiplicity 1
 C        -0.079758         0.078819         0.051132
 C         1.522618         0.069679         0.022836
 C         2.206013         1.020808        -0.954064
 C         3.648421         1.021854        -0.436215
 C         4.199696        -0.215869        -0.865091
 C         3.390037        -1.184392         0.134469
 O         1.938877        -1.291228        -0.354608
 C         3.319561         0.248445         0.977359
 O         2.006441         0.291855         1.318624
 H        -0.467978        -0.538133         0.972012
 H        -0.606736         0.997734         0.159279
 H        -0.319028        -0.387444        -0.971525
 H         2.049045         0.693360        -2.021900
 H         1.816884         2.027559        -0.872050
 H         4.218102         1.983081        -0.509280
 H         4.362744        -0.337780        -1.933178
 H         5.285869        -0.148391        -0.473788
 H         3.724641        -2.236515         0.417545
 H         4.051651         0.286474         1.728021
