19
Iteration:  3225
 C         0.000089        -0.056277        -0.031230
 C         1.466998         0.046966        -0.089380
 C         2.155153         1.199175        -0.830252
 C         3.697161         0.928865        -0.335249
 C         4.200455        -0.395063        -0.972346
 C         3.430796        -1.106386         0.109917
 O         2.006148        -1.195270        -0.270986
 C         3.308706         0.167533         0.998261
 O         1.901504         0.458527         1.276296
 H        -0.299970        -1.053471         0.337576
 H        -0.411259         0.538404         0.726870
 H        -0.364870        -0.121927        -1.021064
 H         2.236485         1.027815        -1.945601
 H         1.882328         2.178825        -0.413540
 H         4.442006         1.788440        -0.175848
 H         3.708043        -0.782414        -1.973390
 H         5.273190        -0.387515        -1.117666
 H         3.814267        -2.182698         0.388067
 H         3.804072         0.198660         1.995915
