19
Iteration:  2684
 C        -0.046566         0.009266        -0.107147
 C         1.419541         0.045302         0.041218
 C         2.220977         1.103389        -0.920558
 C         3.665280         1.015988        -0.389937
 C         4.209324        -0.349329        -0.952347
 C         3.427979        -1.142784         0.082976
 O         1.958626        -1.336585        -0.163870
 C         3.339492         0.235060         0.955920
 O         1.979458         0.434514         1.316011
 H        -0.562106        -0.851270         0.394833
 H        -0.496043         0.972028         0.389127
 H        -0.149414        -0.340250        -1.204529
 H         2.075992         0.838771        -2.019527
 H         1.624709         1.966681        -0.618107
 H         4.271806         2.016817        -0.343783
 H         3.916056        -0.320284        -1.974135
 H         5.337024        -0.404429        -0.984519
 H         3.854698        -1.925616         0.671212
 H         4.006522         0.302130         1.823504
