19
Iteration:  3355
 C        -0.152566        -0.110848        -0.099936
 C         1.492325         0.146652         0.020364
 C         2.126096         1.140869        -0.897971
 C         3.658465         0.914775        -0.380988
 C         4.275711        -0.393994        -0.927976
 C         3.353638        -1.100792         0.145952
 O         2.001312        -1.135525        -0.332318
 C         3.418478         0.175584         1.002564
 O         2.007524         0.390062         1.374535
 H        -0.450573        -0.804578         0.729318
 H        -0.804373         0.741066        -0.200896
 H        -0.312173        -0.540389        -1.066983
 H         1.890519         1.035568        -2.049471
 H         1.598088         2.177057        -0.574535
 H         4.351286         1.771330        -0.503926
 H         4.103179        -0.714730        -2.009902
 H         5.304217        -0.377885        -0.731328
 H         3.721501        -2.053578         0.583629
 H         4.115689         0.258423         1.893183
