19
Iteration:  4528
 C        -0.043164        -0.030642         0.050215
 C         1.425204         0.078762        -0.117566
 C         2.196383         1.134317        -0.929615
 C         3.672769         0.935315        -0.366063
 C         4.296653        -0.340572        -0.887949
 C         3.363123        -1.135078         0.155005
 O         2.026423        -1.278186        -0.392545
 C         3.249198         0.267064         1.002933
 O         1.969342         0.404930         1.346332
 H        -0.274973        -0.850106         0.854460
 H        -0.250218         0.926012         0.634474
 H        -0.636191        -0.277659        -0.885547
 H         2.094592         0.997445        -2.036458
 H         1.597810         2.111218        -0.775017
 H         4.279865         1.807057        -0.469752
 H         4.162707        -0.527603        -1.989954
 H         5.332720        -0.445618        -0.756715
 H         3.605212        -2.193213         0.472897
 H         3.956076         0.341732         1.888732
