19
Iteration:  1544
 C        -0.106263        -0.001265         0.038768
 C         1.489319         0.085917         0.021824
 C         2.152671         1.081753        -0.911143
 C         3.611185         0.960399        -0.453366
 C         4.366291        -0.379888        -0.880664
 C         3.409500        -1.141802         0.102968
 O         1.991220        -1.155178        -0.357889
 C         3.304351         0.173702         0.996225
 O         1.951703         0.387236         1.285338
 H        -0.326597        -0.568993         0.905729
 H        -0.487356         1.022462         0.206794
 H        -0.442077        -0.455494        -0.940712
 H         2.066504         0.802260        -1.914012
 H         1.702502         2.069726        -0.753990
 H         4.054347         1.992994        -0.339838
 H         4.356661        -0.501450        -1.991996
 H         5.348922        -0.579773        -0.430552
 H         3.582895        -2.119051         0.668995
 H         4.053541         0.108164         1.853586
