19
Iteration:  3146charge 0 multiplicity 1
 C        -0.042235         0.059564         0.041094
 C         1.482262         0.026370        -0.033584
 C         2.239345         1.117592        -0.907719
 C         3.664669         1.087020        -0.292926
 C         4.181040        -0.369823        -0.944824
 C         3.421882        -1.104126         0.056272
 O         2.017549        -1.280810        -0.337604
 C         3.318866         0.138419         1.037524
 O         1.916949         0.329846         1.288691
 H        -0.423242        -0.580189         0.746732
 H        -0.506800         1.044197        -0.125577
 H        -0.372700        -0.343831        -0.902062
 H         2.107702         0.999129        -2.028055
 H         1.935626         2.232654        -0.707757
 H         4.224676         2.048835        -0.273266
 H         3.811285        -0.700204        -1.996533
 H         5.234058        -0.487297        -0.793990
 H         3.831206        -2.004081         0.522050
 H         3.739217         0.367166         1.956026
