19
Iteration:  3916
 C        -0.003283         0.001347        -0.096216
 C         1.418140         0.026982         0.025874
 C         2.147752         1.185672        -0.847318
 C         3.593339         0.942587        -0.375128
 C         4.168290        -0.368007        -0.951612
 C         3.462133        -1.147041         0.127711
 O         2.103891        -1.237630        -0.312653
 C         3.376599         0.231840         0.956470
 O         1.897636         0.378847         1.353622
 H        -0.326311        -0.533259         0.901570
 H        -0.231219         1.069470         0.112311
 H        -0.263535        -0.459368        -1.065208
 H         1.915911         1.135029        -1.906832
 H         1.710576         2.030013        -0.560597
 H         4.332592         1.813148        -0.411041
 H         3.821116        -0.711500        -1.988639
 H         5.246794        -0.477334        -1.121934
 H         3.608997        -2.167270         0.526695
 H         3.927815         0.387026         1.867439
