19
Iteration:  1549charge 0 multiplicity 1
 C        -0.069219        -0.023249         0.023617
 C         1.474507         0.122392         0.004941
 C         2.133389         1.067660        -0.875946
 C         3.666994         0.983353        -0.468053
 C         4.361602        -0.392363        -0.883756
 C         3.352923        -1.127408         0.160413
 O         1.978269        -1.189484        -0.390422
 C         3.343379         0.184081         0.990410
 O         1.960674         0.382885         1.321436
 H        -0.605640        -0.645100         0.864271
 H        -0.625203         0.917683         0.125601
 H        -0.411863        -0.532052        -0.845663
 H         2.001180         0.854577        -2.002304
 H         1.837873         2.202697        -0.751266
 H         4.104490         1.974293        -0.418544
 H         4.328792        -0.472807        -1.991823
 H         5.440366        -0.459235        -0.594454
 H         3.467146        -2.109231         0.555353
 H         4.000172         0.228792         1.825181
