19
Iteration:   526charge 0 multiplicity 1
 C        -0.024489        -0.025147        -0.097886
 C         1.465646         0.063775         0.058273
 C         2.126248         1.064379        -0.868932
 C         3.636488         0.988414        -0.455892
 C         4.248592        -0.338985        -0.947036
 C         3.380852        -1.088221         0.118571
 O         1.983534        -1.220321        -0.219470
 C         3.345476         0.144388         0.942437
 O         2.010294         0.396083         1.324259
 H        -0.306600        -0.924078         0.303041
 H        -0.616291         0.800199         0.536826
 H        -0.245523         0.063577        -1.135042
 H         2.098790         0.879781        -1.950977
 H         1.628356         2.050078        -0.685170
 H         4.143320         1.999586        -0.403283
 H         4.137898        -0.546084        -2.044071
 H         5.303293        -0.387123        -0.712744
 H         3.536467        -1.957402         0.694470
 H         3.996434         0.330938         1.813057
