19
Iteration:  1750
 C        -0.009467         0.087834        -0.139723
 C         1.417462         0.030896         0.101740
 C         2.161339         1.121442        -0.908063
 C         3.614964         0.980744        -0.461237
 C         4.202857        -0.405514        -0.990111
 C         3.493081        -1.060734         0.110486
 O         2.034023        -1.316861        -0.174002
 C         3.354046         0.223690         1.057859
 O         1.931400         0.361588         1.303352
 H        -0.543500        -0.347865         0.751621
 H        -0.372680         1.079464        -0.278599
 H        -0.275212        -0.498139        -1.037126
 H         1.895878         0.956112        -1.977376
 H         1.683321         2.031466        -0.538874
 H         4.073385         1.914464        -0.536730
 H         3.993427        -0.695723        -1.980392
 H         5.257329        -0.247009        -0.898903
 H         3.669667        -2.091591         0.391481
 H         4.084467         0.265471         1.875943
