19
Iteration:  4694charge 0 multiplicity 1
 C        -0.105495         0.061488         0.062709
 C         1.462587         0.015686        -0.033116
 C         2.193116         1.157551        -0.905665
 C         3.633817         0.992651        -0.335033
 C         4.270663        -0.305051        -0.883101
 C         3.365720        -1.153752         0.142669
 O         2.049154        -1.337588        -0.371445
 C         3.277666         0.189841         0.901007
 O         1.946207         0.385665         1.274046
 H        -0.257307        -0.651370         0.958157
 H        -0.275818         1.080632         0.518987
 H        -0.560043        -0.385440        -0.852577
 H         2.342152         0.879174        -1.936146
 H         1.854135         2.243734        -0.837774
 H         4.225863         1.943018        -0.166940
 H         4.178875        -0.468441        -1.994625
 H         5.254291        -0.479344        -0.705323
 H         3.914755        -2.026228         0.538360
 H         3.936999         0.415391         1.720931
