19
Iteration:  3311
 C        -0.073534         0.075068         0.068716
 C         1.407088         0.000710        -0.091663
 C         2.159153         1.086244        -0.929890
 C         3.655626         1.055241        -0.378530
 C         4.352364        -0.302642        -0.928850
 C         3.362444        -1.126297         0.152505
 O         2.024563        -1.253597        -0.334726
 C         3.335215         0.194654         1.040524
 O         1.927882         0.280008         1.243245
 H        -0.115905        -0.490965         1.014705
 H        -0.297009         1.136746         0.110189
 H        -0.782140        -0.363342        -0.614183
 H         2.264987         0.821102        -2.095012
 H         1.885614         2.270184        -0.812522
 H         4.195602         2.024942        -0.216241
 H         4.188542        -0.518590        -2.028627
 H         5.305886        -0.388723        -0.538509
 H         3.507413        -2.185120         0.546000
 H         3.947184         0.296092         1.981820
