19
Iteration:  2729
 C        -0.053725         0.021970        -0.063828
 C         1.405490         0.075873         0.035668
 C         2.108347         1.111954        -0.853180
 C         3.669132         0.964360        -0.506926
 C         4.289593        -0.372045        -0.899593
 C         3.390020        -1.093405         0.204582
 O         2.039183        -1.273257        -0.343155
 C         3.307117         0.225824         0.973205
 O         1.979704         0.368124         1.333223
 H        -0.565862        -0.494952         0.810743
 H        -0.531202         1.020721        -0.135612
 H        -0.454937        -0.610492        -0.894506
 H         2.065753         0.993225        -1.924422
 H         2.010162         2.160753        -0.587814
 H         4.254485         1.883664        -0.279261
 H         3.993528        -0.784514        -1.858572
 H         5.357568        -0.426633        -0.854574
 H         3.749309        -2.037107         0.613597
 H         4.148369         0.388338         1.674589
