19
Iteration:  2767
 C        -0.050327        -0.121051         0.110799
 C         1.431139         0.129028        -0.020560
 C         2.227132         1.121688        -0.970221
 C         3.659314         0.957262        -0.358363
 C         4.294906        -0.388433        -0.827712
 C         3.313960        -1.153297         0.073957
 O         1.988956        -1.213262        -0.398819
 C         3.361908         0.210183         1.005451
 O         1.958738         0.476336         1.254853
 H         0.000958        -0.682171         1.022033
 H        -0.515739         0.902659         0.077940
 H        -0.472378        -0.574382        -0.784908
 H         2.068919         0.714951        -2.013119
 H         1.627002         2.112130        -0.888617
 H         4.196433         1.927255        -0.226869
 H         4.060764        -0.504384        -1.932625
 H         5.359860        -0.493075        -0.449783
 H         3.568780        -2.212327         0.438611
 H         3.808189         0.367107         1.978358
