19
Iteration:  2680charge 0 multiplicity 1
 C        -0.059943        -0.016261        -0.097541
 C         1.408615         0.046301         0.076771
 C         2.197307         1.077998        -0.902288
 C         3.682896         1.037626        -0.404587
 C         4.219254        -0.392118        -0.945627
 C         3.400956        -1.139021         0.067531
 O         1.955898        -1.325129        -0.193729
 C         3.364300         0.272450         0.973923
 O         1.981189         0.433912         1.295723
 H        -0.530164        -0.882239         0.369477
 H        -0.539887         0.902679         0.317443
 H        -0.270688        -0.214091        -1.154448
 H         2.258601         0.913175        -1.967805
 H         1.718995         2.010877        -0.624019
 H         4.233267         1.961844        -0.302990
 H         4.032737        -0.296984        -2.043025
 H         5.329579        -0.384268        -0.882795
 H         3.861984        -1.889638         0.731812
 H         4.070417         0.317428         1.794633
