19
Iteration:  2063charge 0 multiplicity 1
 C        -0.059538        -0.076422         0.079583
 C         1.419285         0.145355         0.028242
 C         2.201454         1.098364        -0.998312
 C         3.634131         0.953483        -0.370573
 C         4.290106        -0.364092        -0.891030
 C         3.429859        -1.162789         0.090439
 O         2.027200        -1.191676        -0.354785
 C         3.258526         0.199645         0.987814
 O         1.978436         0.430156         1.301136
 H        -0.438474        -1.055725         0.561425
 H        -0.530660         0.722750         0.628256
 H        -0.482326         0.138940        -0.906136
 H         2.064090         0.641732        -1.957442
 H         1.777802         2.013769        -0.959213
 H         4.185403         1.986497        -0.398183
 H         4.247960        -0.724834        -1.844476
 H         5.259145        -0.572759        -0.399585
 H         3.549583        -2.178269         0.266741
 H         3.915663         0.521307         1.834947
