19
Iteration:  1808charge 0 multiplicity 1
 C        -0.107040        -0.096355         0.047455
 C         1.466491         0.136729        -0.007581
 C         2.157309         1.068259        -0.975598
 C         3.590271         0.914834        -0.437666
 C         4.385417        -0.434483        -0.846813
 C         3.365248        -1.076993         0.095252
 O         2.014198        -1.133524        -0.325767
 C         3.289170         0.208716         0.980128
 O         1.955743         0.439082         1.291537
 H        -0.047418        -0.738101         1.013611
 H        -0.699272         0.759946         0.456055
 H        -0.524091        -0.635507        -0.810523
 H         1.993099         0.907403        -1.953376
 H         1.999546         2.108663        -0.790943
 H         4.301211         1.831355        -0.272025
 H         4.428867        -0.771897        -1.915159
 H         5.284746        -0.360563        -0.315795
 H         3.511418        -2.172746         0.375234
 H         4.187907         0.368027         1.576881
