19
Iteration:  3512
 C        -0.056230         0.022563        -0.188993
 C         1.459643         0.028809         0.127081
 C         2.201733         1.096720        -0.948549
 C         3.626808         1.006442        -0.325030
 C         4.185279        -0.297204        -1.003280
 C         3.391950        -1.177679         0.093722
 O         2.004288        -1.292011        -0.198947
 C         3.385361         0.175550         0.979723
 O         1.965535         0.472728         1.374631
 H        -0.512546        -0.566761         0.541413
 H        -0.654354         0.958543        -0.067614
 H        -0.077650        -0.512876        -1.116233
 H         2.050337         0.837750        -2.024572
 H         1.647390         2.089245        -0.683296
 H         4.157039         1.956109        -0.405195
 H         4.026785        -0.727571        -1.946027
 H         5.223776        -0.380119        -0.883699
 H         3.978266        -2.139990         0.203799
 H         4.030715         0.161272         1.849256
