19
Iteration:  2685
 C        -0.046164         0.016834        -0.109585
 C         1.428439         0.043461         0.029307
 C         2.226476         1.107868        -0.925528
 C         3.659507         1.009413        -0.383081
 C         4.210297        -0.332322        -0.955473
 C         3.431474        -1.139014         0.090405
 O         1.961948        -1.338523        -0.155399
 C         3.331947         0.223561         0.948937
 O         1.978942         0.434097         1.321897
 H        -0.553849        -0.833063         0.411209
 H        -0.469808         0.952423         0.366694
 H        -0.124861        -0.340064        -1.191432
 H         2.020239         0.825096        -2.014766
 H         1.599821         1.985402        -0.625614
 H         4.262822         1.993407        -0.364657
 H         3.871452        -0.354808        -1.985306
 H         5.312115        -0.422336        -0.999124
 H         3.856873        -1.970403         0.649778
 H         3.989014         0.302488         1.839845
