19
Iteration:  4040
 C        -0.122508        -0.044654        -0.053134
 C         1.433581         0.027752         0.008468
 C         2.175636         1.161559        -0.868003
 C         3.612273         0.919500        -0.351971
 C         4.243691        -0.356769        -0.956236
 C         3.389941        -1.126956         0.053609
 O         2.006956        -1.165800        -0.254168
 C         3.358877         0.199596         0.972123
 O         2.027347         0.376470         1.320035
 H        -0.317514        -0.852901         0.579734
 H        -0.482864         0.963767         0.123865
 H        -0.487037        -0.248080        -1.070890
 H         2.177747         1.077983        -1.914521
 H         1.688194         2.036243        -0.704785
 H         4.037077         1.927057        -0.237875
 H         4.323100        -0.588247        -2.004746
 H         5.363054        -0.366697        -0.580036
 H         3.671258        -2.104356         0.407697
 H         4.101202         0.251112         1.776285
