19
Iteration:  3583
 C        -0.083353        -0.073541         0.129225
 C         1.424694         0.052363        -0.127604
 C         2.218610         1.088964        -0.982150
 C         3.632176         0.942393        -0.362216
 C         4.291175        -0.424630        -0.864145
 C         3.409667        -1.126416         0.129651
 O         2.003267        -1.131585        -0.356332
 C         3.345957         0.223632         0.987123
 O         1.889179         0.429292         1.288654
 H        -0.142571        -0.979230         0.853398
 H        -0.420662         0.794615         0.711910
 H        -0.438666        -0.283254        -0.935233
 H         2.191622         1.049035        -2.057292
 H         1.794824         2.021660        -0.718202
 H         4.181811         1.890295        -0.263977
 H         4.206617        -0.572202        -2.004815
 H         5.443785        -0.506189        -0.698221
 H         3.719357        -2.059613         0.588176
 H         4.032986         0.518212         1.767255
