19
Iteration:  3821charge 0 multiplicity 1
 C        -0.005274        -0.054434        -0.040084
 C         1.442927         0.104286        -0.043984
 C         2.145508         1.207357        -0.836057
 C         3.610663         0.899782        -0.383675
 C         4.205989        -0.412803        -0.955621
 C         3.432966        -1.104636         0.147865
 O         2.029317        -1.222050        -0.271813
 C         3.375360         0.236266         1.020273
 O         1.928693         0.355542         1.236022
 H        -0.378820        -0.902784         0.448252
 H        -0.585064         0.644731         0.497489
 H        -0.402418        -0.132496        -1.043813
 H         1.904221         1.244142        -1.935015
 H         1.829453         2.329681        -0.410847
 H         4.351210         1.732131        -0.490357
 H         4.104966        -0.814528        -1.924166
 H         5.299584        -0.398970        -0.869325
 H         3.830690        -2.021191         0.576251
 H         3.941448         0.498801         1.902262
