19
Iteration:  2672
 C        -0.094606        -0.069108        -0.071353
 C         1.453457         0.039446         0.055252
 C         2.173230         1.063355        -0.850948
 C         3.658967         0.981140        -0.381571
 C         4.254213        -0.365692        -0.979295
 C         3.331101        -1.089537         0.112706
 O         1.990777        -1.282255        -0.239736
 C         3.393264         0.300961         0.953533
 O         1.989180         0.431234         1.292278
 H        -0.416771        -0.971712         0.488742
 H        -0.692229         0.917446         0.245658
 H        -0.433872         0.086872        -1.159459
 H         2.203231         0.925135        -1.960758
 H         1.887344         2.093679        -0.770199
 H         4.268464         1.976023        -0.428068
 H         4.169258        -0.692661        -2.010172
 H         5.302624        -0.590667        -0.535824
 H         3.700478        -2.036401         0.486925
 H         4.017282         0.407740         1.830568
