19
Iteration:   185charge 0 multiplicity 1
 C        -0.117941         0.005661         0.070147
 C         1.445979        -0.015452         0.004270
 C         2.120336         1.015980        -0.976551
 C         3.626320         0.966157        -0.451056
 C         4.402452        -0.322595        -0.876732
 C         3.457144        -1.081006         0.111965
 O         1.932243        -1.262237        -0.308709
 C         3.357388         0.213009         0.984344
 O         1.964354         0.477183         1.288969
 H        -0.580188        -0.676266         0.879435
 H        -0.285349         0.981275         0.362426
 H        -0.608404        -0.220915        -0.929776
 H         1.972423         0.734666        -2.016945
 H         1.740569         1.995653        -0.703707
 H         4.003889         1.939197        -0.613870
 H         4.483239        -0.677607        -1.884682
 H         5.397353        -0.328765        -0.430697
 H         3.685752        -2.044040         0.513336
 H         4.065364         0.304264         1.824872
