19
Iteration:    26
 C        -0.026756        -0.131262         0.155723
 C         1.419280         0.167409         0.018623
 C         2.158984         1.118561        -1.034253
 C         3.664400         0.950353        -0.506175
 C         4.312401        -0.445114        -0.850788
 C         3.346626        -1.104106         0.184668
 O         1.998152        -1.191156        -0.392436
 C         3.298406         0.273520         0.937314
 O         1.988530         0.438027         1.303120
 H        -0.112818        -0.735394         1.129220
 H        -0.662452         0.665732         0.241973
 H        -0.335777        -0.820118        -0.679563
 H         1.994419         0.717793        -2.003757
 H         1.765752         2.121625        -0.921961
 H         4.269701         1.824105        -0.531656
 H         4.327887        -0.751009        -1.919307
 H         5.198393        -0.383635        -0.290092
 H         3.471648        -2.097100         0.740857
 H         3.938013         0.391390         1.877600
