19
Iteration:  3021charge 0 multiplicity 1
 C        -0.102705        -0.016166        -0.004146
 C         1.429322         0.114956         0.008458
 C         2.160651         1.095419        -0.973356
 C         3.658752         0.956858        -0.412398
 C         4.324838        -0.341186        -0.892579
 C         3.401688        -1.130279         0.110411
 O         1.998082        -1.153249        -0.324382
 C         3.313674         0.183430         0.987601
 O         1.955423         0.306232         1.341701
 H        -0.549597        -0.820765         0.636285
 H        -0.453211         0.854090         0.530517
 H        -0.537366         0.027514        -1.020264
 H         2.037151         0.836362        -2.044497
 H         1.775706         2.216986        -0.813744
 H         4.346171         1.810339        -0.360649
 H         4.532898        -0.629122        -1.886621
 H         5.284847        -0.405749        -0.277673
 H         3.768572        -2.121362         0.298939
 H         4.022775         0.254207         1.855018
