19
Iteration:  3676
 C        -0.060139        -0.032387        -0.111898
 C         1.532566         0.034183        -0.039530
 C         2.187485         1.137647        -0.907463
 C         3.604167         0.996956        -0.367278
 C         4.190463        -0.362240        -1.027816
 C         3.425799        -1.123798         0.142223
 O         2.009726        -1.274987        -0.190964
 C         3.320496         0.188374         1.027961
 O         1.965489         0.440226         1.340168
 H        -0.532381        -0.641877         0.659111
 H        -0.488058         0.954310         0.013962
 H        -0.309836        -0.428805        -1.056116
 H         2.129604         1.084812        -2.036482
 H         1.653701         2.090450        -0.471223
 H         4.185754         1.916178        -0.501723
 H         4.027461        -0.610430        -2.075639
 H         5.248660        -0.427794        -0.835128
 H         3.744291        -2.113490         0.539453
 H         4.049958         0.294105         1.872099
