19
Iteration:  1904
 C        -0.053546        -0.069225        -0.064428
 C         1.438815         0.070542         0.035818
 C         2.118816         1.159424        -0.917838
 C         3.652717         0.934735        -0.439553
 C         4.305468        -0.408588        -0.958574
 C         3.412859        -1.100388         0.142776
 O         2.021200        -1.203902        -0.251819
 C         3.343721         0.249131         0.945998
 O         1.963294         0.411544         1.346126
 H        -0.432927        -0.932265         0.567009
 H        -0.381268         0.920995         0.266864
 H        -0.234772        -0.356769        -1.071294
 H         1.869480         0.741325        -1.968559
 H         1.558148         2.174155        -0.778985
 H         4.068563         1.906510        -0.294989
 H         4.046543        -0.777257        -2.000235
 H         5.335160        -0.457672        -0.570939
 H         3.529586        -2.108666         0.652216
 H         3.988703         0.371015         1.844988
