19
Iteration:  4235charge 0 multiplicity 1
 C        -0.074113         0.021268        -0.047665
 C         1.432163         0.086596        -0.010858
 C         2.190779         1.034877        -0.872539
 C         3.646308         1.015473        -0.362911
 C         4.225522        -0.257901        -0.914633
 C         3.381435        -1.146663         0.094863
 O         1.993331        -1.285498        -0.267328
 C         3.325434         0.192840         0.923478
 O         2.022341         0.365594         1.321176
 H        -0.395623        -0.769106         0.637570
 H        -0.492007         1.037809         0.141057
 H        -0.433179        -0.313060        -1.028822
 H         2.369010         0.828790        -1.929073
 H         1.898206         2.151082        -0.739204
 H         4.269002         1.884259        -0.410183
 H         3.920311        -0.424014        -1.897157
 H         5.214127        -0.432122        -0.672060
 H         3.771576        -2.058437         0.504891
 H         3.819111         0.279761         1.900335
