19
Iteration:  2648charge 0 multiplicity 1
 C        -0.042477        -0.082244         0.037637
 C         1.468722         0.129824        -0.008071
 C         2.096797         1.124178        -0.985865
 C         3.564220         0.933348        -0.497933
 C         4.321537        -0.430023        -0.850304
 C         3.431961        -1.152635         0.194203
 O         2.044783        -1.144159        -0.352616
 C         3.302430         0.173161         0.989902
 O         1.949059         0.415786         1.331707
 H        -0.134560        -1.036853         0.597141
 H        -0.598663         0.791365         0.584391
 H        -0.573492         0.148582        -0.906933
 H         2.029681         1.070489        -2.051630
 H         1.889481         2.160493        -0.861387
 H         4.228858         1.816167        -0.468431
 H         4.203984        -0.745407        -1.935437
 H         5.433141        -0.255468        -0.623957
 H         3.638169        -2.128996         0.696378
 H         3.983804         0.313886         1.831712
