19
Iteration:  3428
 C        -0.034870         0.030139         0.047644
 C         1.434372         0.071137         0.030771
 C         2.198091         1.056346        -0.979960
 C         3.673987         0.949449        -0.352312
 C         4.327752        -0.303443        -0.944151
 C         3.384971        -1.077298         0.097506
 O         1.988117        -1.248627        -0.290082
 C         3.276664         0.219145         0.959982
 O         1.908458         0.356389         1.327976
 H        -0.216532        -1.017984         0.450193
 H        -0.521760         0.980523         0.448360
 H        -0.354701         0.015243        -1.026156
 H         2.118811         0.612660        -1.950734
 H         1.856104         2.058748        -0.997852
 H         4.090702         1.976428        -0.523021
 H         4.130886        -0.500161        -2.026320
 H         5.347240        -0.679233        -0.483998
 H         3.848208        -1.977624         0.438356
 H         3.941965         0.289303         1.839008
