19
Iteration:  1343
 C        -0.034013        -0.050718        -0.013947
 C         1.530377         0.073249        -0.028342
 C         2.215358         1.169246        -0.812271
 C         3.682857         0.950893        -0.381699
 C         4.144914        -0.359835        -0.986045
 C         3.312283        -1.065311         0.147210
 O         2.047093        -1.240456        -0.353948
 C         3.341454         0.209891         0.982677
 O         1.918253         0.381975         1.338379
 H        -0.363598        -0.876347         0.730723
 H        -0.428863         0.943036         0.029483
 H        -0.361724        -0.455388        -0.984423
 H         2.097056         1.011874        -1.887815
 H         1.819303         2.090228        -0.549384
 H         4.358413         1.794227        -0.472753
 H         3.957443        -0.752202        -1.985830
 H         5.273627        -0.456316        -0.900836
 H         3.756112        -2.015224         0.536249
 H         3.848669         0.153389         1.927860
