19
Iteration:  3582charge 0 multiplicity 1
 C        -0.082729        -0.066828         0.126245
 C         1.427363         0.056420        -0.126942
 C         2.209140         1.085549        -0.984819
 C         3.620118         0.936740        -0.359572
 C         4.287095        -0.426506        -0.870905
 C         3.418349        -1.126203         0.129568
 O         2.013143        -1.132548        -0.357317
 C         3.344623         0.228828         0.983156
 O         1.890023         0.429343         1.285871
 H        -0.147067        -0.975707         0.856983
 H        -0.394818         0.798819         0.718826
 H        -0.411936        -0.295673        -0.918089
 H         2.222577         1.042163        -2.048676
 H         1.825219         1.998600        -0.656574
 H         4.187926         1.889834        -0.222759
 H         4.187505        -0.580438        -1.975343
 H         5.435289        -0.506347        -0.704852
 H         3.664054        -2.064506         0.598363
 H         4.008563         0.518673         1.811680
