19
Iteration:   670charge 0 multiplicity 1
 C        -0.108217         0.060552        -0.088913
 C         1.396862        -0.026762        -0.003329
 C         2.160903         1.027494        -0.843850
 C         3.593212         0.977382        -0.372401
 C         4.321394        -0.405550        -0.981762
 C         3.407303        -1.125565         0.085548
 O         2.063029        -1.261772        -0.262206
 C         3.336160         0.293423         0.911777
 O         1.955062         0.402259         1.408201
 H        -0.561335        -0.574729         0.707773
 H        -0.214030         1.125033         0.110897
 H        -0.628857         0.089317        -1.118154
 H         2.189863         0.753085        -2.005289
 H         1.704531         2.044666        -0.727260
 H         4.156997         2.050095        -0.274723
 H         4.107652        -0.692063        -2.029103
 H         5.433626        -0.439881        -0.809524
 H         3.895014        -1.848576         0.706060
 H         4.055949         0.453385         1.707362
