19
Iteration:  1370charge 0 multiplicity 1
 C        -0.144885         0.090060         0.045724
 C         1.488437         0.076953         0.000290
 C         2.100978         1.110117        -0.914229
 C         3.596713         0.929710        -0.345362
 C         4.378438        -0.269790        -0.887757
 C         3.378844        -1.160338         0.098173
 O         2.040595        -1.219667        -0.301611
 C         3.359534         0.146981         0.897286
 O         1.965615         0.323608         1.316317
 H        -0.598151        -0.512077         0.750115
 H        -0.513521         1.105450        -0.164664
 H        -0.399301        -0.452814        -0.886452
 H         1.966491         0.659517        -1.922267
 H         1.705227         2.230808        -0.915197
 H         4.164222         1.895051        -0.246789
 H         4.349541        -0.507928        -1.974021
 H         5.419224        -0.416447        -0.680999
 H         3.669321        -2.221337         0.333373
 H         3.963861         0.297874         1.829963
