19
Iteration:  2113
 C        -0.046238         0.074288        -0.033302
 C         1.433594        -0.017189        -0.012360
 C         2.170073         1.118854        -0.934448
 C         3.583713         0.940044        -0.411499
 C         4.214265        -0.320164        -0.944738
 C         3.444391        -1.106002         0.126996
 O         2.085535        -1.267499        -0.268063
 C         3.362333         0.211651         1.052997
 O         1.937001         0.372056         1.297228
 H        -0.462998        -0.468676         0.783211
 H        -0.240475         1.169514         0.072490
 H        -0.540594        -0.227991        -1.012524
 H         2.053006         0.991350        -2.034511
 H         1.530827         2.032327        -0.572837
 H         4.218909         1.778312        -0.462029
 H         3.978820        -0.536821        -2.061654
 H         5.252501        -0.417857        -0.612923
 H         3.687921        -2.169453         0.450410
 H         3.941340         0.182283         1.945433
