19
Iteration:  1586charge 0 multiplicity 1
 C        -0.005515        -0.082376        -0.082320
 C         1.418780         0.097018        -0.070037
 C         2.147986         1.213140        -0.845031
 C         3.674679         0.962147        -0.373040
 C         4.215028        -0.395635        -1.039947
 C         3.359842        -1.160842         0.194367
 O         2.026272        -1.196289        -0.196346
 C         3.380371         0.136822         1.019876
 O         1.952857         0.425982         1.283824
 H        -0.232362        -0.657923         0.775915
 H        -0.434375         0.982693        -0.212173
 H        -0.218995        -0.573694        -1.115712
 H         1.892858         1.119980        -1.884681
 H         1.804621         2.094505        -0.466430
 H         4.282473         1.853355        -0.498878
 H         3.744261        -0.713278        -1.939152
 H         5.305740        -0.365628        -1.083294
 H         3.684033        -2.207537         0.487281
 H         3.933939         0.377691         1.980561
