19
Iteration:  1312charge 0 multiplicity 1
 C        -0.123274        -0.078835        -0.112843
 C         1.496703         0.097776        -0.074415
 C         2.176932         1.245891        -0.816616
 C         3.641678         0.897950        -0.361385
 C         4.170798        -0.357129        -1.024144
 C         3.418321        -1.105960         0.152428
 O         2.040273        -1.213778        -0.218417
 C         3.378875         0.155355         0.991819
 O         1.988858         0.405850         1.323988
 H        -0.411316        -0.982071         0.389043
 H        -0.769524         0.679129         0.339211
 H        -0.373603        -0.167583        -1.145796
 H         2.043084         1.131647        -1.954885
 H         1.849138         2.212971        -0.456952
 H         4.243453         1.773195        -0.473296
 H         3.919502        -0.840721        -1.935619
 H         5.260145        -0.286058        -0.702509
 H         3.516669        -2.231967         0.471403
 H         4.062003         0.208617         1.809819
