19
Iteration:  2188charge 0 multiplicity 1
 C        -0.068932        -0.011082         0.059842
 C         1.365366         0.081019         0.029488
 C         2.162205         1.194587        -0.885838
 C         3.637436         0.962092        -0.427920
 C         4.278713        -0.398658        -0.883797
 C         3.420296        -1.135724         0.120298
 O         2.086320        -1.239223        -0.348177
 C         3.337243         0.212921         0.968381
 O         1.946015         0.339336         1.248561
 H        -0.588162        -0.675389         0.733887
 H        -0.294037         1.098195         0.134567
 H        -0.346906        -0.380406        -0.982696
 H         1.885512         0.985896        -1.921651
 H         1.796748         2.254753        -0.746213
 H         4.260449         1.794447        -0.415261
 H         4.048727        -0.679746        -1.972561
 H         5.324639        -0.462968        -0.618445
 H         3.671247        -1.986396         0.833393
 H         3.860648         0.411357         1.864033
