19
Iteration:  3500
 C        -0.057155        -0.060244        -0.078678
 C         1.451033         0.062104        -0.039487
 C         2.239957         1.147967        -0.930954
 C         3.609894         0.961482        -0.357446
 C         4.161371        -0.366173        -0.954428
 C         3.395362        -1.093029         0.100303
 O         2.015568        -1.276309        -0.234809
 C         3.310332         0.235023         1.034888
 O         2.023602         0.400688         1.344510
 H        -0.432013        -0.689718         0.661743
 H        -0.355972         0.983854        -0.062828
 H        -0.344016        -0.420188        -1.071488
 H         2.206076         0.888277        -2.028056
 H         1.810235         2.215191        -0.759931
 H         4.241365         1.823247        -0.232331
 H         3.754536        -0.483185        -1.931621
 H         5.179994        -0.486638        -0.898285
 H         3.724644        -2.089335         0.533013
 H         3.982098         0.447869         1.834001
