19
Iteration:   326charge 0 multiplicity 1
 C        -0.031730         0.154341         0.044544
 C         1.469420         0.043758        -0.074813
 C         2.163984         1.049095        -0.976922
 C         3.572183         0.959908        -0.417840
 C         4.242885        -0.294422        -0.966189
 C         3.441864        -1.052998         0.099008
 O         2.059080        -1.296375        -0.229490
 C         3.262217         0.228246         1.031423
 O         1.934818         0.277683         1.300019
 H        -0.285837        -0.852139         0.593355
 H        -0.208989         0.919009         0.651910
 H        -0.602858         0.035171        -0.924636
 H         2.116753         0.821826        -2.036147
 H         1.737975         1.983558        -0.643761
 H         4.283816         1.675262        -0.595493
 H         4.332390        -0.747232        -1.948634
 H         5.219377        -0.164384        -0.476389
 H         3.891566        -2.027712         0.516708
 H         3.881884         0.424323         1.946047
