19
Iteration:   986
 C        -0.040536        -0.054605         0.098600
 C         1.426773         0.135980        -0.083692
 C         2.226309         1.147078        -1.005171
 C         3.633503         0.870118        -0.428763
 C         4.287785        -0.399840        -0.890698
 C         3.396738        -1.132496         0.156068
 O         2.049398        -1.139350        -0.303750
 C         3.255932         0.234857         1.058105
 O         1.900028         0.368288         1.230885
 H        -0.230388        -0.607114         1.167213
 H        -0.591891         0.831424         0.267734
 H        -0.373589        -0.726048        -0.730377
 H         2.032460         0.913273        -2.125645
 H         1.911415         2.076720        -0.711222
 H         4.251055         1.817576        -0.407961
 H         4.177738        -0.444566        -1.948947
 H         5.381922        -0.346379        -0.617053
 H         3.934804        -1.981766         0.538522
 H         3.795786         0.021796         1.957850
