19
Iteration:  2846
 C        -0.072359        -0.001210        -0.131590
 C         1.357519         0.099154        -0.000575
 C         2.171607         1.113820        -0.864592
 C         3.664155         0.948102        -0.410672
 C         4.224345        -0.390374        -0.999542
 C         3.405183        -1.121064         0.123228
 O         2.048385        -1.238116        -0.200631
 C         3.406814         0.253049         1.009333
 O         1.972347         0.371709         1.374139
 H        -0.410285        -0.980419         0.081156
 H        -0.717156         0.804509         0.266227
 H        -0.247936        -0.026612        -1.206337
 H         2.144165         0.857326        -1.918014
 H         1.672006         2.069044        -0.730420
 H         4.149811         1.943760        -0.457710
 H         4.048805        -0.517410        -2.043975
 H         5.377641        -0.543468        -0.853739
 H         3.686307        -2.062176         0.494019
 H         3.802521         0.327615         1.979422
