19
Iteration:  2470charge 0 multiplicity 1
 C        -0.095716         0.084304         0.043232
 C         1.450485        -0.010252        -0.018275
 C         2.136073         1.090385        -0.968802
 C         3.585614         0.963958        -0.395920
 C         4.290133        -0.310615        -0.897441
 C         3.420012        -1.144685         0.124837
 O         2.051402        -1.278370        -0.295245
 C         3.255038         0.253819         0.925447
 O         1.983092         0.360569         1.330781
 H        -0.363557        -0.806486         0.626215
 H        -0.126212         1.044970         0.542871
 H        -0.460256         0.011568        -1.007443
 H         2.205308         0.806736        -2.038457
 H         1.739305         2.105799        -0.700390
 H         4.011591         1.935617        -0.544036
 H         4.369718        -0.650921        -2.006200
 H         5.304832        -0.372002        -0.454193
 H         3.914734        -2.036460         0.645199
 H         4.069742         0.346028         1.694624
