19
Iteration:  4838
 C        -0.088405         0.029674        -0.047993
 C         1.406850         0.120128         0.038910
 C         2.138875         1.113299        -0.847358
 C         3.655396         0.982281        -0.429822
 C         4.264133        -0.297097        -0.843840
 C         3.396789        -1.182176         0.028125
 O         2.027800        -1.245438        -0.318718
 C         3.378954         0.197389         0.995516
 O         1.961229         0.346566         1.298324
 H        -0.368517        -0.673891         0.733172
 H        -0.434642         1.010324         0.297197
 H        -0.437732        -0.524448        -0.980457
 H         2.174130         0.809298        -1.894375
 H         1.653741         2.087791        -0.807839
 H         4.218289         1.915911        -0.552298
 H         4.380470        -0.663283        -1.968457
 H         5.301775        -0.389209        -0.495464
 H         3.730074        -2.175792         0.362413
 H         3.847177         0.251739         1.993313
