19
Iteration:  2569
 C        -0.074104         0.008381        -0.163431
 C         1.532093         0.023270         0.036197
 C         2.115658         1.045244        -0.860154
 C         3.592081         0.997889        -0.457408
 C         4.184946        -0.373600        -0.978940
 C         3.402025        -1.055747         0.125718
 O         1.992446        -1.242653        -0.234102
 C         3.384704         0.207814         1.069395
 O         2.028592         0.384515         1.374471
 H        -0.685638        -0.536934         0.574605
 H        -0.347208         1.006582        -0.186047
 H        -0.103354        -0.449699        -1.134919
 H         2.073650         0.834301        -1.901139
 H         1.713664         2.034381        -0.690345
 H         4.207804         1.827126        -0.463953
 H         3.843377        -0.480019        -2.070201
 H         5.256267        -0.331432        -0.992539
 H         3.666686        -2.058408         0.572833
 H         4.112428         0.469667         1.882760
