19
Iteration:  4504charge 0 multiplicity 1
 C        -0.054480        -0.040295        -0.031254
 C         1.431214         0.125985        -0.004794
 C         2.226016         1.130559        -0.868903
 C         3.593967         0.933800        -0.317142
 C         4.201974        -0.377648        -0.964356
 C         3.411102        -1.067495         0.103234
 O         2.054020        -1.201381        -0.246081
 C         3.333146         0.172311         0.990387
 O         1.957042         0.370386         1.235258
 H        -0.470468        -0.781746         0.711402
 H        -0.460736         0.985002         0.279827
 H        -0.238762        -0.346285        -1.146316
 H         2.167182         0.812477        -2.001964
 H         1.672396         2.105833        -0.800236
 H         4.134599         1.872359        -0.285217
 H         3.957476        -0.636655        -1.925989
 H         5.296562        -0.547692        -0.775957
 H         3.741953        -2.138803         0.442307
 H         4.029877         0.274654         1.874983
