19
Iteration:  1492
 C        -0.077561         0.043693        -0.040826
 C         1.474746         0.045705        -0.031122
 C         2.146142         1.049200        -0.878119
 C         3.645472         0.938059        -0.396153
 C         4.234128        -0.358510        -0.954585
 C         3.430684        -1.061221         0.112311
 O         2.045259        -1.247815        -0.254355
 C         3.315606         0.237872         1.002726
 O         1.927342         0.345994         1.312151
 H        -0.514672        -0.789458         0.492748
 H        -0.262451         0.961705         0.418495
 H        -0.326104         0.241217        -1.068649
 H         2.200766         0.805181        -1.928957
 H         1.737168         2.164660        -0.705711
 H         4.150154         1.935857        -0.241931
 H         4.016071        -0.524626        -2.056484
 H         5.287195        -0.506721        -0.684590
 H         3.705175        -2.060959         0.406496
 H         4.134146         0.287030         1.759666
