19
Iteration:   896charge 0 multiplicity 1
 C        -0.032973         0.042207        -0.096179
 C         1.542052        -0.039715        -0.060830
 C         2.153068         1.032067        -0.862810
 C         3.594391         1.016906        -0.445338
 C         4.131341        -0.321035        -0.904711
 C         3.481582        -1.089777         0.222127
 O         1.981264        -1.325790        -0.242123
 C         3.346399         0.257669         1.007707
 O         2.004398         0.458082         1.256156
 H        -0.640475        -0.717326         0.396466
 H        -0.280546         1.005199         0.489789
 H        -0.354889         0.043890        -1.197231
 H         2.120435         0.719152        -1.926356
 H         1.656501         1.956195        -0.662477
 H         4.144085         1.881908        -0.487826
 H         3.897139        -0.431398        -1.960081
 H         5.169413        -0.595194        -0.727319
 H         3.761052        -2.115390         0.604012
 H         3.891595         0.183374         2.011821
