19
Iteration:   296
 C        -0.168120         0.028965         0.095618
 C         1.401655        -0.005051         0.003644
 C         2.148625         0.988792        -0.966929
 C         3.585392         0.976700        -0.292693
 C         4.349690        -0.339005        -0.881882
 C         3.450512        -1.140733         0.136353
 O         2.019334        -1.227078        -0.416702
 C         3.316705         0.259331         0.958238
 O         2.052430         0.440800         1.270107
 H        -0.641665        -0.737385         0.776526
 H        -0.478077         1.068286         0.429414
 H        -0.641514        -0.134642        -0.886901
 H         2.200495         0.677237        -1.999247
 H         1.678847         1.994245        -0.927084
 H         4.251021         1.838119        -0.345080
 H         4.141313        -0.738774        -1.893737
 H         5.392172        -0.309757        -0.698371
 H         3.638787        -2.065067         0.518694
 H         4.022002         0.586603         1.823852
