19
Iteration:   756charge 0 multiplicity 1
 C        -0.022953        -0.038516        -0.080315
 C         1.425978         0.123916        -0.020159
 C         2.135145         1.189694        -0.932838
 C         3.590835         0.927236        -0.429819
 C         4.217759        -0.413701        -0.907249
 C         3.409591        -1.111195         0.141769
 O         2.062890        -1.235530        -0.202285
 C         3.342206         0.205132         0.936006
 O         1.977985         0.391458         1.323861
 H        -0.375355        -0.825433         0.533289
 H        -0.473593         0.808698         0.390567
 H        -0.275241        -0.277305        -1.153723
 H         1.891564         1.119071        -2.050251
 H         1.618096         2.079333        -0.586594
 H         4.361386         1.748571        -0.248674
 H         4.022796        -0.770459        -1.937811
 H         5.311204        -0.502780        -0.695721
 H         3.815122        -2.031978         0.593908
 H         3.989673         0.395267         1.806782
