19
Iteration:  3194charge 0 multiplicity 1
 C        -0.102342         0.082895         0.040519
 C         1.417912         0.069147         0.043784
 C         2.151992         1.154273        -0.894939
 C         3.664052         0.941086        -0.433219
 C         4.304329        -0.324268        -0.822038
 C         3.405335        -1.128099         0.082201
 O         1.994752        -1.269118        -0.420813
 C         3.358522         0.233911         0.939403
 O         1.966554         0.293324         1.350877
 H        -0.425108        -0.916432         0.546842
 H        -0.588522         0.983459         0.457782
 H        -0.501847         0.021370        -1.002487
 H         2.136955         0.663564        -1.882319
 H         1.690188         2.105323        -0.972391
 H         4.224211         1.913027        -0.445344
 H         4.327683        -0.698838        -1.924140
 H         5.339567        -0.149361        -0.339506
 H         3.849482        -2.187260         0.339000
 H         3.889675         0.354752         1.955327
