19
Iteration:  3724
 C        -0.083747        -0.064618         0.097402
 C         1.457397         0.112393        -0.037428
 C         2.144899         1.148265        -0.979337
 C         3.645003         0.900684        -0.439228
 C         4.306248        -0.392864        -0.826076
 C         3.407886        -1.053148         0.131554
 O         2.068932        -1.179031        -0.378289
 C         3.271683         0.178253         0.981596
 O         1.918891         0.357022         1.293558
 H        -0.332344        -0.600122         1.030225
 H        -0.565898         0.913483         0.352347
 H        -0.673265        -0.537290        -0.758782
 H         2.123238         0.933905        -2.059486
 H         1.993972         2.251301        -0.752005
 H         4.220081         1.851063        -0.386375
 H         4.261653        -0.740949        -1.835326
 H         5.376087        -0.334102        -0.580858
 H         3.735459        -2.007815         0.517579
 H         3.983353         0.302005         1.764754
