19
Iteration:    73
 C         0.036423         0.022617        -0.004508
 C         1.500712         0.030719         0.012893
 C         2.139288         1.080335        -0.947108
 C         3.631073         1.020494        -0.491893
 C         4.187233        -0.359771        -0.951036
 C         3.353848        -1.044449         0.181966
 O         2.006837        -1.324191        -0.178302
 C         3.342957         0.303539         0.988746
 O         1.960404         0.324338         1.266258
 H        -0.430784        -0.513727         0.782341
 H        -0.379262         1.138971        -0.010020
 H        -0.236922        -0.443968        -0.935189
 H         2.053675         0.626348        -1.975716
 H         1.676647         2.079593        -0.800184
 H         4.222503         1.962545        -0.765179
 H         3.856458        -0.726369        -1.926406
 H         5.274034        -0.426840        -0.609004
 H         3.965091        -1.958553         0.589961
 H         3.945164         0.441074         1.861733
