19
Iteration:   315
 C        -0.049676         0.142981         0.106646
 C         1.431048         0.041574        -0.016349
 C         2.149778         1.052355        -0.965029
 C         3.621384         0.991867        -0.417811
 C         4.299167        -0.314157        -0.891524
 C         3.434744        -1.076071         0.129926
 O         2.117198        -1.342429        -0.301011
 C         3.312341         0.184570         0.949013
 O         1.862059         0.337631         1.252780
 H        -0.405331        -0.720281         0.804067
 H        -0.305736         0.980690         0.606992
 H        -0.676969         0.243749        -0.825509
 H         2.047495         0.789308        -2.023650
 H         1.666097         2.027269        -0.952097
 H         4.000389         1.968939        -0.358233
 H         4.165728        -0.527905        -1.960848
 H         5.384084        -0.427534        -0.684400
 H         3.837952        -2.005147         0.661492
 H         3.955720         0.290318         1.845369
