19
Iteration:   935charge 0 multiplicity 1
 C        -0.020657        -0.001483        -0.104388
 C         1.425401         0.105072         0.041176
 C         2.151457         1.102280        -0.884808
 C         3.604472         0.979114        -0.511181
 C         4.257590        -0.383381        -0.928279
 C         3.418835        -1.111561         0.175033
 O         2.019671        -1.255668        -0.218453
 C         3.335011         0.152549         1.026893
 O         1.952431         0.398938         1.312872
 H        -0.448951        -0.787309         0.475683
 H        -0.512406         0.963686         0.155636
 H        -0.194306        -0.134204        -1.144424
 H         1.968835         0.795548        -1.905925
 H         1.630245         2.137548        -0.791418
 H         4.195220         1.974018        -0.603310
 H         4.124913        -0.744155        -1.991498
 H         5.333256        -0.287432        -0.696365
 H         3.991682        -1.959884         0.539124
 H         4.012417         0.462440         1.769733
