19
Iteration:  2087
 C        -0.077120         0.077859         0.060678
 C         1.366979         0.095396        -0.005771
 C         2.164339         1.065429        -0.920134
 C         3.586706         0.927447        -0.418191
 C         4.393211        -0.317031        -0.848935
 C         3.430743        -1.082429         0.152439
 O         2.030468        -1.277814        -0.363021
 C         3.314582         0.246886         0.897281
 O         1.960177         0.317988         1.280832
 H        -0.322330        -0.768193         0.853597
 H        -0.381715         1.053266         0.511823
 H        -0.626791         0.089095        -0.882826
 H         2.075116         0.750964        -1.980474
 H         1.620843         1.959688        -0.739143
 H         4.180939         1.879719        -0.507920
 H         4.286102        -0.670806        -1.850958
 H         5.385221        -0.375373        -0.365308
 H         3.520140        -2.107075         0.542849
 H         3.981668         0.208196         1.802541
