19
Iteration:  2468charge 0 multiplicity 1
 C        -0.077062         0.079980         0.040112
 C         1.454179        -0.020836        -0.018462
 C         2.114686         1.096673        -0.947644
 C         3.590072         0.956639        -0.398824
 C         4.270698        -0.318996        -0.913703
 C         3.414371        -1.154136         0.135768
 O         2.058181        -1.295727        -0.298980
 C         3.240756         0.274527         0.933497
 O         1.997720         0.363242         1.322268
 H        -0.407445        -0.776936         0.546974
 H        -0.157027         1.093644         0.509570
 H        -0.467422         0.057230        -1.008574
 H         2.260080         0.774847        -2.045450
 H         1.805657         2.188959        -0.619348
 H         4.069716         1.980218        -0.551208
 H         4.382457        -0.585039        -2.005146
 H         5.327472        -0.320302        -0.452682
 H         3.892297        -1.982098         0.699969
 H         4.024060         0.343063         1.667992
