19
Iteration:   255charge 0 multiplicity 1
 C        -0.053983        -0.138254        -0.083792
 C         1.441997         0.067773        -0.014205
 C         2.167653         1.263781        -0.878905
 C         3.618870         0.920498        -0.429180
 C         4.184899        -0.443113        -0.975730
 C         3.424923        -1.111613         0.195534
 O         1.957469        -1.248951        -0.217190
 C         3.415179         0.289446         0.943587
 O         1.992248         0.424789         1.310612
 H        -0.335819        -0.852525         0.619477
 H        -0.706584         0.834835        -0.054516
 H        -0.105360        -0.687930        -0.992106
 H         2.114606         1.177973        -1.969113
 H         1.776627         2.181882        -0.401591
 H         4.338591         1.810970        -0.290226
 H         3.964396        -0.730023        -2.031149
 H         5.275189        -0.434147        -0.793819
 H         3.731639        -2.062352         0.631787
 H         4.076085         0.593961         1.785156
