19
Iteration:  1073charge 0 multiplicity 1
 C        -0.074129        -0.068853        -0.035357
 C         1.443478         0.072734        -0.005636
 C         2.253253         1.108095        -0.846363
 C         3.650369         0.913737        -0.372222
 C         4.133583        -0.430285        -0.906451
 C         3.399732        -1.106613         0.141213
 O         2.071722        -1.228469        -0.345967
 C         3.362392         0.279703         0.995493
 O         1.949112         0.468564         1.251488
 H        -0.180358        -1.134598         0.553991
 H        -0.529432         0.757712         0.533922
 H        -0.487056        -0.078321        -1.049015
 H         2.033650         1.035473        -2.009388
 H         1.833819         2.034003        -0.534175
 H         4.108761         1.884963        -0.238135
 H         3.871628        -0.548578        -1.930752
 H         5.256440        -0.368761        -0.803921
 H         3.563673        -2.157292         0.514801
 H         3.897135         0.341351         1.906674
