19
Iteration:  2660
 C        -0.079141        -0.052554        -0.029928
 C         1.409391         0.088252        -0.048835
 C         2.173729         1.104468        -0.909016
 C         3.624845         0.891750        -0.450457
 C         4.269579        -0.382182        -0.887338
 C         3.407934        -1.084231         0.135938
 O         2.018055        -1.156731        -0.284742
 C         3.328591         0.210029         0.983000
 O         2.000247         0.427387         1.331037
 H        -0.391296        -1.039471         0.393387
 H        -0.479423         0.758013         0.735621
 H        -0.421837        -0.277371        -1.091974
 H         1.873098         0.721697        -1.888819
 H         1.733255         2.024927        -0.632373
 H         4.202758         1.879352        -0.553329
 H         4.212582        -0.754145        -1.920559
 H         5.371921        -0.469771        -0.497575
 H         3.697398        -2.074354         0.490330
 H         4.012144         0.428386         1.787622
