19
Iteration:   815charge 0 multiplicity 1
 C        -0.054067        -0.008852         0.017925
 C         1.442495         0.051265        -0.058464
 C         2.195141         1.159634        -0.923279
 C         3.621176         0.939145        -0.449185
 C         4.285732        -0.342208        -0.917218
 C         3.459049        -1.109047         0.150988
 O         2.001520        -1.243611        -0.241994
 C         3.330033         0.171746         1.020095
 O         1.915161         0.391513         1.254287
 H        -0.358206        -0.454788         1.013919
 H        -0.401827         1.023363        -0.049793
 H        -0.583174        -0.422472        -0.806919
 H         2.191952         0.865469        -1.994387
 H         1.547618         2.088120        -0.774050
 H         4.334934         1.824846        -0.396945
 H         4.126158        -0.665059        -1.951615
 H         5.352053        -0.330803        -0.641944
 H         3.642037        -2.134802         0.442780
 H         3.848692         0.325348         1.955011
