19
Iteration:   675charge 0 multiplicity 1
 C        -0.121231         0.051338        -0.085671
 C         1.380450        -0.025000         0.014933
 C         2.179358         1.028989        -0.882508
 C         3.609610         1.005026        -0.380908
 C         4.336337        -0.412434        -0.936193
 C         3.407202        -1.095160         0.068323
 O         2.058254        -1.251695        -0.274640
 C         3.328634         0.282579         0.887494
 O         1.958962         0.396477         1.414491
 H        -0.576419        -0.619791         0.707245
 H        -0.130381         1.118816         0.284525
 H        -0.614573         0.100933        -1.026408
 H         2.106950         0.734580        -1.882300
 H         1.597910         1.934855        -0.719056
 H         4.116787         1.901166        -0.482542
 H         4.206851        -0.558455        -2.015016
 H         5.361705        -0.591611        -0.609437
 H         3.868462        -1.937670         0.651534
 H         4.064148         0.399833         1.714412
