19
Iteration:  3404
 C        -0.137749         0.046192        -0.105358
 C         1.501121         0.001753        -0.051419
 C         2.199165         1.102975        -0.873800
 C         3.613099         0.982908        -0.309487
 C         4.170282        -0.300625        -0.980842
 C         3.434317        -1.122305         0.148424
 O         2.052596        -1.298535        -0.192142
 C         3.331519         0.182855         1.019218
 O         2.018317         0.405513         1.241418
 H        -0.525165        -0.770149         0.455199
 H        -0.393797         1.063249         0.322265
 H        -0.596623         0.077915        -1.123124
 H         2.111181         0.938369        -1.927726
 H         1.720295         2.014824        -0.636007
 H         4.076220         1.958660        -0.402705
 H         3.696213        -0.665346        -1.867034
 H         5.315060        -0.519374        -0.928665
 H         3.922692        -2.074208         0.373292
 H         3.925537         0.362732         1.873516
