19
Iteration:  1093
 C        -0.075908        -0.095047         0.053818
 C         1.441452         0.090977        -0.020470
 C         2.177092         1.254323        -0.974783
 C         3.645539         0.906102        -0.433620
 C         4.398982        -0.379805        -0.923999
 C         3.338837        -1.093635         0.167654
 O         1.999814        -1.173325        -0.309306
 C         3.275272         0.152961         1.015228
 O         1.934094         0.401854         1.286898
 H        -0.060285        -1.111575         0.577647
 H        -0.403142         0.707223         0.586113
 H        -0.557015        -0.044342        -0.915395
 H         2.045693         0.970109        -2.128565
 H         1.686021         2.182038        -0.783074
 H         4.223957         1.756833        -0.377978
 H         4.213299        -0.832640        -1.880505
 H         5.469221        -0.629966        -0.718632
 H         3.755064        -2.096541         0.619625
 H         3.986909         0.245775         1.855654
