19
Iteration:  3126charge 0 multiplicity 1
 C        -0.037575        -0.074650        -0.130330
 C         1.480348         0.103636        -0.032028
 C         2.212126         1.191162        -0.775836
 C         3.650732         0.914309        -0.364824
 C         4.180468        -0.356102        -0.995959
 C         3.397709        -1.107595         0.167948
 O         1.998523        -1.186128        -0.297671
 C         3.340319         0.193421         1.004941
 O         1.937169         0.349958         1.321331
 H        -0.272645        -0.675602         0.780279
 H        -0.619289         0.925275        -0.104748
 H        -0.404968        -0.633162        -0.999261
 H         2.144408         1.105817        -1.899262
 H         1.879506         2.215878        -0.474588
 H         4.522717         1.648655        -0.308844
 H         3.748550        -0.392077        -2.144782
 H         5.278304        -0.567211        -0.972700
 H         3.685577        -2.167127         0.606143
 H         4.096844         0.376179         1.739569
