19
Iteration:  3375
 C        -0.003721        -0.063687        -0.185952
 C         1.449260         0.048318         0.053101
 C         2.224071         1.198896        -0.777329
 C         3.590199         0.935234        -0.470963
 C         4.204443        -0.385159        -0.982720
 C         3.379875        -1.123837         0.161534
 O         2.040097        -1.212534        -0.248457
 C         3.314312         0.253121         0.959077
 O         1.965033         0.352307         1.385961
 H        -0.440836        -0.755634         0.611099
 H        -0.449685         0.980797         0.019547
 H        -0.219431        -0.223595        -1.256871
 H         1.780908         1.131902        -1.811636
 H         1.786454         2.240380        -0.605483
 H         4.161195         1.892488        -0.579474
 H         4.085598        -0.960614        -1.958424
 H         5.302677        -0.520940        -0.881190
 H         3.702205        -2.084616         0.508386
 H         4.030462         0.533766         1.764880
