19
Iteration:  2782
 C        -0.060145        -0.023838         0.082831
 C         1.440205         0.073130        -0.080466
 C         2.238606         1.062517        -0.955794
 C         3.657043         0.947339        -0.324927
 C         4.256009        -0.336957        -0.946953
 C         3.382801        -1.083296         0.169730
 O         2.012716        -1.211616        -0.351330
 C         3.233552         0.177164         0.974493
 O         1.931320         0.429725         1.295311
 H        -0.279240        -0.730231         0.937831
 H        -0.555891         0.892068         0.486380
 H        -0.422921        -0.567644        -0.841356
 H         2.412982         0.861968        -1.976656
 H         2.056558         2.055800        -0.922358
 H         4.281544         1.890063        -0.364634
 H         4.201044        -0.626692        -1.951903
 H         5.374938        -0.443059        -0.742794
 H         3.678219        -1.937283         0.675175
 H         4.085600         0.153469         1.650645
