19
Iteration:  2065
 C        -0.060718        -0.062791         0.086336
 C         1.434298         0.139196         0.015810
 C         2.185795         1.080823        -1.002868
 C         3.644019         0.954828        -0.375498
 C         4.300795        -0.358916        -0.892642
 C         3.430070        -1.152479         0.092881
 O         2.026976        -1.175433        -0.351013
 C         3.257911         0.176749         1.000851
 O         1.978093         0.421364         1.302664
 H        -0.524460        -1.045979         0.520304
 H        -0.548007         0.757564         0.630779
 H        -0.580878         0.070972        -0.874221
 H         2.024949         0.662268        -2.026419
 H         1.801711         2.092551        -0.994544
 H         4.117435         1.969398        -0.412848
 H         4.280078        -0.726440        -1.890073
 H         5.261242        -0.507666        -0.347935
 H         3.558343        -2.220172         0.331314
 H         3.948143         0.514862         1.821271
