19
Iteration:  3483
 C        -0.050416        -0.014135        -0.014988
 C         1.466055         0.072353        -0.043069
 C         2.161796         1.140146        -0.851623
 C         3.706966         0.962250        -0.381404
 C         4.226095        -0.392388        -0.963423
 C         3.382310        -1.115934         0.251195
 O         2.033925        -1.172132        -0.307765
 C         3.381694         0.224415         0.940067
 O         1.853577         0.352097         1.222455
 H        -0.074922        -0.801745         0.846839
 H        -0.513933         0.928296         0.386255
 H        -0.420716        -0.566142        -0.898718
 H         2.077089         0.944359        -1.892467
 H         1.740228         2.018506        -0.479877
 H         4.283620         1.895996        -0.609634
 H         3.990532        -0.811549        -1.983842
 H         5.407142        -0.449001        -0.756039
 H         3.767240        -2.011240         0.686665
 H         3.967409         0.283753         1.903483
