19
Iteration:    19
 C         0.035137        -0.128900         0.134476
 C         1.461635         0.194945         0.020733
 C         2.204915         1.119622        -1.027263
 C         3.619675         0.947750        -0.507134
 C         4.260413        -0.413506        -0.823232
 C         3.274289        -1.108924         0.189077
 O         1.983081        -1.268710        -0.397733
 C         3.320964         0.313252         0.878501
 O         1.931513         0.406838         1.392997
 H        -0.020801        -0.733437         1.005870
 H        -0.693657         0.812983         0.230305
 H        -0.288108        -0.719658        -0.700742
 H         2.022663         0.760726        -2.091071
 H         1.957071         2.213805        -1.011061
 H         4.258870         1.890995        -0.617733
 H         4.403209        -0.808275        -1.843799
 H         5.378793        -0.452516        -0.479949
 H         3.857047        -1.951262         0.669049
 H         4.080050         0.515589         1.615992
