19
Iteration:   990charge 0 multiplicity 1
 C        -0.038880        -0.059284         0.094819
 C         1.412184         0.115132        -0.123536
 C         2.219627         1.120208        -1.010515
 C         3.634738         0.877738        -0.400117
 C         4.265257        -0.395542        -0.882468
 C         3.392509        -1.114302         0.138774
 O         2.059929        -1.146148        -0.297939
 C         3.268570         0.220175         1.040986
 O         1.913881         0.358547         1.265211
 H        -0.189620        -0.512222         1.001363
 H        -0.455902         1.013492         0.209108
 H        -0.373350        -0.673205        -0.695550
 H         2.101723         0.903207        -2.015833
 H         1.838794         2.167206        -0.675739
 H         4.193429         1.896292        -0.402108
 H         4.168797        -0.436965        -2.011350
 H         5.322183        -0.394174        -0.615282
 H         3.783214        -2.055832         0.550022
 H         3.900270         0.350131         1.962529
