19
Iteration:  2490charge 0 multiplicity 1
 C        -0.090379        -0.002251         0.124749
 C         1.424353         0.124076         0.010383
 C         2.089602         0.987518        -0.993372
 C         3.672548         0.959146        -0.405258
 C         4.352686        -0.319266        -0.899897
 C         3.399717        -1.085754         0.080840
 O         1.993452        -1.181880        -0.312186
 C         3.325000         0.186139         1.041446
 O         1.961442         0.356235         1.232121
 H        -0.351961        -0.813611         0.741370
 H        -0.595899         0.961799         0.332243
 H        -0.575962        -0.292626        -0.872907
 H         2.226050         0.327160        -1.911735
 H         2.000434         2.134809        -0.988094
 H         4.237593         1.939985        -0.254900
 H         4.351339        -0.412249        -2.022758
 H         5.441447        -0.212362        -0.594454
 H         3.676900        -2.083366         0.486826
 H         3.947220         0.293679         1.940061
