19
Iteration:  1678charge 0 multiplicity 1
 C        -0.062237        -0.055939         0.137376
 C         1.436855         0.093785        -0.102109
 C         2.229733         1.101306        -0.969420
 C         3.652034         0.923257        -0.398972
 C         4.306057        -0.337222        -0.904598
 C         3.417403        -1.083859         0.200324
 O         1.951969        -1.198203        -0.343802
 C         3.308045         0.229405         0.987107
 O         1.943362         0.368781         1.228690
 H        -0.233200        -1.046535         0.674636
 H        -0.523407         0.735930         0.689762
 H        -0.702388        -0.031197        -0.710269
 H         2.279385         1.007408        -2.026731
 H         1.927400         2.110610        -0.607748
 H         4.187684         1.958205        -0.453729
 H         4.096059        -0.969606        -1.832165
 H         5.328081        -0.578354        -0.636715
 H         3.563729        -2.042581         0.698014
 H         4.016509         0.507551         1.726337
