19
Iteration:  4391charge 0 multiplicity 1
 C        -0.120252        -0.026725         0.007677
 C         1.438134         0.052562        -0.062234
 C         2.180975         1.094821        -0.907629
 C         3.607360         0.939558        -0.416919
 C         4.348134        -0.372765        -0.853039
 C         3.399993        -1.083502         0.127753
 O         1.958698        -1.200160        -0.366299
 C         3.343527         0.190381         0.975648
 O         2.032262         0.404375         1.362153
 H        -0.662908        -0.859884         0.550896
 H        -0.625868         0.897334         0.329568
 H        -0.711731        -0.113256        -0.963128
 H         1.840358         0.878639        -1.978393
 H         1.755271         2.140438        -0.645910
 H         4.257150         1.859499        -0.548871
 H         4.521243        -0.497703        -1.888151
 H         5.379379        -0.367000        -0.442547
 H         3.654608        -2.098292         0.537074
 H         4.087088         0.188152         1.744285
