19
Iteration:  1029
 C        -0.054121         0.102187        -0.143177
 C         1.433877         0.071710         0.053220
 C         2.110654         1.024540        -0.874338
 C         3.589845         0.927887        -0.399558
 C         4.285073        -0.272374        -0.979686
 C         3.400466        -1.102611         0.079473
 O         2.070749        -1.287936        -0.181876
 C         3.347096         0.182498         0.997715
 O         1.974633         0.358095         1.341114
 H        -0.826925        -0.534018         0.556197
 H        -0.520929         1.073399        -0.059533
 H        -0.265921        -0.255174        -1.195870
 H         1.933374         0.904341        -2.031251
 H         1.874791         2.017618        -0.639880
 H         4.180377         1.856986        -0.539570
 H         4.166998        -0.527823        -2.015275
 H         5.320221        -0.458584        -0.594276
 H         3.783773        -2.102842         0.456348
 H         3.997589         0.519562         1.804214
