19
Iteration:  3707charge 0 multiplicity 1
 C        -0.125628        -0.137653         0.043185
 C         1.475903         0.124936         0.035852
 C         2.220675         1.138855        -0.934614
 C         3.624298         0.989508        -0.354815
 C         4.369663        -0.400148        -0.943898
 C         3.376466        -1.180291         0.141721
 O         1.961736        -1.158257        -0.362287
 C         3.321421         0.246142         0.959477
 O         1.959745         0.406229         1.326605
 H        -0.282807        -0.782098         0.898098
 H        -0.678231         0.845553        -0.019806
 H        -0.233048        -0.533281        -0.969363
 H         1.993184         0.870141        -1.978042
 H         1.647496         2.059830        -0.996765
 H         4.194404         1.899049        -0.460881
 H         4.370420        -0.625118        -2.116603
 H         5.405907        -0.508094        -0.550592
 H         3.436652        -2.195665         0.627653
 H         3.969785         0.457726         1.860230
