19
Iteration:  1389
 C        -0.103496         0.128046         0.016382
 C         1.399700         0.047354         0.074032
 C         2.192012         1.018293        -0.897548
 C         3.623444         1.007735        -0.394123
 C         4.329207        -0.290232        -0.883109
 C         3.469516        -1.054657         0.020713
 O         1.965249        -1.319225        -0.379064
 C         3.292708         0.161542         0.975263
 O         1.972691         0.323441         1.334124
 H        -0.344330        -0.395117         0.952089
 H        -0.398004         1.215469         0.036282
 H        -0.546268        -0.442225        -0.773793
 H         2.068200         0.751003        -2.001623
 H         1.953116         2.030788        -0.811797
 H         4.004049         1.997241        -0.587715
 H         4.598901        -0.475661        -1.897035
 H         5.366456        -0.419535        -0.371263
 H         3.584987        -2.077062         0.546736
 H         3.986869         0.351436         1.769617
