19
Iteration:  3174
 C        -0.073085         0.114658         0.027965
 C         1.413365         0.041817        -0.021522
 C         2.095699         1.004954        -0.930066
 C         3.578702         0.975148        -0.353693
 C         4.439372        -0.300050        -0.875046
 C         3.374201        -1.106289         0.013341
 O         2.016043        -1.189702        -0.323904
 C         3.306593         0.126697         0.942928
 O         1.978489         0.306082         1.326291
 H        -0.643371        -0.592089         0.789949
 H        -0.262130         1.171190         0.346377
 H        -0.548298        -0.117047        -0.990880
 H         1.949598         0.714280        -1.937551
 H         1.985261         2.026559        -0.670344
 H         4.040271         1.974939        -0.320633
 H         4.518473        -0.477863        -1.951436
 H         5.465614        -0.256246        -0.330337
 H         3.644545        -2.034589         0.575190
 H         4.038918         0.267019         1.883307
