19
Iteration:  3843charge 0 multiplicity 1
 C        -0.093891        -0.049342         0.071296
 C         1.416294         0.066417        -0.054858
 C         2.241838         1.161940        -0.912566
 C         3.634401         0.987151        -0.392444
 C         4.285635        -0.371199        -0.897255
 C         3.371647        -1.116153         0.188670
 O         2.071250        -1.209037        -0.396189
 C         3.325094         0.217496         0.940516
 O         1.929684         0.351670         1.318612
 H        -0.451057        -0.736886         0.788982
 H        -0.463473         0.868591         0.502259
 H        -0.601393        -0.253775        -0.880478
 H         2.042988         0.966092        -1.995302
 H         1.580943         2.122727        -0.651696
 H         4.318085         1.869746        -0.368988
 H         4.053520        -0.694132        -1.889505
 H         5.371838        -0.572173        -0.861188
 H         3.670039        -2.081847         0.589577
 H         4.015584         0.301897         1.767594
