19
Iteration:  1636
 C        -0.065588         0.116648        -0.010413
 C         1.406824         0.078189         0.015585
 C         2.155074         1.022899        -0.937323
 C         3.555751         0.936080        -0.427191
 C         4.326469        -0.383674        -0.909802
 C         3.463432        -1.085670         0.145390
 O         1.982212        -1.238018        -0.290115
 C         3.323517         0.182893         0.950902
 O         2.001549         0.344644         1.346816
 H        -0.363802        -0.831042         0.526024
 H        -0.577144         1.035180         0.288192
 H        -0.241369         0.020665        -1.068620
 H         1.854697         0.601126        -1.982378
 H         1.852104         2.155631        -0.789485
 H         4.096104         1.899708        -0.378464
 H         4.213331        -0.341272        -2.032459
 H         5.397702        -0.184416        -0.618264
 H         3.871298        -2.005065         0.478976
 H         3.891937         0.356207         1.831049
