19
Iteration:  2154
 C        -0.068768        -0.185793        -0.140781
 C         1.453958         0.072507        -0.004691
 C         2.170296         1.191270        -0.837313
 C         3.721034         0.966897        -0.393177
 C         4.138230        -0.383814        -0.965683
 C         3.324652        -1.111398         0.061878
 O         1.992273        -1.179038        -0.236640
 C         3.345625         0.177266         1.033367
 O         2.026824         0.450548         1.382944
 H        -0.454056        -0.693159         0.778185
 H        -0.470852         0.883226        -0.319598
 H        -0.144131        -0.575227        -1.205189
 H         2.097702         0.953287        -1.925382
 H         1.994151         2.247898        -0.506023
 H         4.312414         1.838494        -0.672690
 H         3.976370        -0.766435        -2.030844
 H         5.199001        -0.411236        -0.726055
 H         3.920635        -2.048989         0.423023
 H         3.961384         0.334931         1.893259
