19
Iteration:  4044
 C        -0.085672        -0.058939        -0.063185
 C         1.395387         0.035780         0.004319
 C         2.224061         1.152553        -0.868609
 C         3.631146         0.965810        -0.368583
 C         4.251016        -0.367176        -0.950766
 C         3.413317        -1.135177         0.016958
 O         1.973927        -1.159340        -0.241165
 C         3.389286         0.192380         0.978853
 O         1.992716         0.384119         1.351059
 H        -0.410386        -0.945129         0.562779
 H        -0.580506         0.896150         0.100651
 H        -0.359032        -0.346387        -1.055595
 H         2.145088         1.005008        -1.995653
 H         1.592938         2.150586        -0.621390
 H         4.071869         1.927837        -0.274386
 H         4.137464        -0.579934        -2.053925
 H         5.281651        -0.354932        -0.613188
 H         3.589622        -2.109526         0.542017
 H         4.165543         0.166255         1.750289
