19
Iteration:  1114charge 0 multiplicity 1
 C        -0.107449        -0.003114         0.089336
 C         1.438913         0.120887        -0.015725
 C         2.186425         1.062501        -0.916160
 C         3.615752         0.971503        -0.396025
 C         4.280667        -0.341535        -0.809283
 C         3.388230        -1.169025         0.089749
 O         2.000648        -1.183605        -0.376205
 C         3.316057         0.230264         0.922505
 O         1.975913         0.346777         1.289904
 H        -0.272371        -0.962985         0.605116
 H        -0.531043         0.836012         0.482116
 H        -0.489214        -0.038028        -0.928266
 H         2.127605         0.734837        -2.021879
 H         1.892702         2.108369        -0.840672
 H         4.230140         1.770025        -0.596575
 H         4.556414        -0.661306        -1.812406
 H         5.252783        -0.414001        -0.262455
 H         3.865268        -2.114766         0.540002
 H         4.035530         0.501934         1.724044
