19
Iteration:  2928
 C        -0.045776         0.065424        -0.061963
 C         1.398873         0.035755        -0.052220
 C         2.087050         1.020226        -0.906846
 C         3.588240         0.955872        -0.369334
 C         4.297791        -0.349170        -0.884619
 C         3.464630        -1.052779         0.080409
 O         1.976535        -1.178100        -0.353024
 C         3.386586         0.164539         0.986824
 O         2.014145         0.334530         1.395152
 H        -0.356666        -0.303262         0.920470
 H        -0.416923         1.132405        -0.016317
 H        -0.453130        -0.393673        -0.964243
 H         1.977988         0.658015        -1.939389
 H         1.777922         1.997946        -0.909868
 H         4.028069         1.966613        -0.288722
 H         4.349914        -0.651963        -1.967865
 H         5.225781        -0.372942        -0.432937
 H         3.756430        -2.092037         0.495315
 H         3.853643         0.302721         2.005296
