19
Iteration:  2135
 C        -0.045721        -0.027829        -0.119961
 C         1.409358         0.093607         0.039032
 C         2.245286         1.138117        -0.861712
 C         3.623268         0.990815        -0.356455
 C         4.198290        -0.364917        -1.002841
 C         3.412216        -1.121598         0.116743
 O         1.977387        -1.249022        -0.220832
 C         3.392240         0.219657         0.958700
 O         1.970684         0.370870         1.326164
 H        -0.270886        -0.685152         0.687506
 H        -0.640522         0.889899        -0.282636
 H        -0.043202        -0.597529        -1.098216
 H         2.064350         0.798698        -1.897737
 H         1.689850         2.171343        -0.664929
 H         4.210420         1.811522        -0.116069
 H         3.642896        -0.402413        -2.018288
 H         5.282213        -0.576198        -1.006921
 H         3.776529        -2.022989         0.707001
 H         4.022054         0.357108         1.812149
