19
Iteration:  1953
 C        -0.062924        -0.020251         0.136597
 C         1.429852         0.063655        -0.019971
 C         2.226417         1.113175        -0.972836
 C         3.605151         0.989944        -0.352944
 C         4.359125        -0.317702        -0.868492
 C         3.391597        -1.112901         0.129124
 O         1.996089        -1.254073        -0.340361
 C         3.290611         0.162643         0.923636
 O         1.922902         0.425000         1.217984
 H        -0.286014        -0.556849         1.075914
 H        -0.488688         1.023968         0.107761
 H        -0.337158        -0.766237        -0.694021
 H         1.952391         0.857309        -1.965429
 H         1.806865         2.043109        -0.736538
 H         4.357225         1.907275        -0.486648
 H         4.046103        -0.650012        -1.825865
 H         5.399004        -0.480504        -0.562267
 H         3.784035        -2.017218         0.608441
 H         3.903238         0.191755         1.812629
