19
Iteration:  2380charge 0 multiplicity 1
 C        -0.097380         0.000242         0.055997
 C         1.410439         0.050399        -0.006524
 C         2.150402         1.136448        -0.904555
 C         3.620132         0.958615        -0.415844
 C         4.282943        -0.346338        -0.919397
 C         3.508408        -1.148601         0.150710
 O         2.025249        -1.249306        -0.333835
 C         3.366624         0.205835         0.952773
 O         1.899019         0.365241         1.282959
 H        -0.496267        -0.557632         0.844401
 H        -0.551148         0.998067         0.261477
 H        -0.517391        -0.463249        -0.851047
 H         2.091773         1.276045        -2.041177
 H         1.998413         2.251375        -0.719096
 H         4.282186         1.901400        -0.378044
 H         4.224830        -0.637609        -1.973931
 H         5.400403        -0.389263        -0.555068
 H         3.688059        -2.137871         0.542248
 H         3.911658         0.445948         1.807491
