19
Iteration:  4027
 C        -0.067203         0.047780         0.015021
 C         1.426946         0.098419        -0.029144
 C         2.101984         1.126801        -0.871479
 C         3.581713         0.956916        -0.381731
 C         4.290449        -0.313064        -0.899313
 C         3.422403        -1.140785         0.118391
 O         2.061241        -1.283181        -0.348295
 C         3.355394         0.158481         0.969199
 O         1.981464         0.365643         1.274662
 H        -0.591788        -0.643499         0.693426
 H        -0.467649         0.986779         0.480683
 H        -0.530385        -0.170221        -1.014806
 H         1.889565         0.850704        -1.907446
 H         1.847454         2.069781        -0.543148
 H         4.342892         1.822684        -0.406283
 H         4.164584        -0.524521        -1.969744
 H         5.321781        -0.402405        -0.446325
 H         3.784510        -2.129039         0.460861
 H         3.939234         0.429433         1.858514
