19
Iteration:  3043charge 0 multiplicity 1
 C        -0.027115         0.119041         0.106418
 C         1.466776         0.027504        -0.098716
 C         2.198658         1.005306        -0.917241
 C         3.600943         1.042123        -0.285428
 C         4.328867        -0.293474        -0.869808
 C         3.366012        -1.134560         0.105663
 O         2.005747        -1.337663        -0.379094
 C         3.274768         0.202526         0.945485
 O         1.929649         0.383003         1.227074
 H        -0.406650        -0.690467         0.798481
 H        -0.277289         0.934906         0.728003
 H        -0.653302         0.114229        -0.807814
 H         2.374986         0.861045        -1.986573
 H         1.750046         2.099928        -0.759007
 H         4.228256         1.896548        -0.162424
 H         4.176375        -0.545136        -1.877632
 H         5.442858        -0.371483        -0.665963
 H         3.748699        -2.047554         0.485874
 H         3.861058         0.222780         1.917397
