19
Iteration:  1011
 C        -0.074190         0.048520        -0.060362
 C         1.455172        -0.001132         0.044534
 C         2.171035         1.073483        -0.883729
 C         3.599512         1.030382        -0.381637
 C         4.271505        -0.357488        -0.876828
 C         3.408327        -1.129990         0.166901
 O         1.981868        -1.309431        -0.371476
 C         3.352987         0.268353         0.952351
 O         1.993852         0.413611         1.291044
 H        -0.502899        -0.406105         0.810758
 H        -0.479735         1.100177         0.071606
 H        -0.420861        -0.490708        -0.912953
 H         2.132667         0.696273        -1.859431
 H         1.588514         2.025964        -0.774368
 H         4.276336         1.972609        -0.263463
 H         4.048769        -0.705171        -1.924669
 H         5.352660        -0.370171        -0.674598
 H         3.898946        -1.954188         0.594248
 H         4.003230         0.105107         1.766470
