19
Iteration:  4674
 C        -0.081329        -0.018524         0.092219
 C         1.504410         0.101083        -0.054044
 C         2.166634         1.049195        -0.945038
 C         3.639855         0.932128        -0.382430
 C         4.326034        -0.314181        -0.870293
 C         3.400756        -1.108025         0.020367
 O         1.976100        -1.168781        -0.322152
 C         3.344689         0.164350         1.056022
 O         1.912607         0.353728         1.251131
 H        -0.354180        -0.628180         0.987982
 H        -0.339990         1.062097         0.280064
 H        -0.465383        -0.460421        -0.892523
 H         2.009372         0.892030        -2.045018
 H         1.787818         2.107623        -0.696827
 H         3.985393         2.008045        -0.366917
 H         4.401595        -0.597022        -1.976348
 H         5.324963        -0.294173        -0.582506
 H         3.651924        -2.097617         0.493710
 H         3.886704         0.202011         2.012003
