19
Iteration:  2867
 C        -0.015752        -0.112746        -0.014743
 C         1.405206         0.094495        -0.040913
 C         2.257299         1.147208        -0.932766
 C         3.668268         0.976762        -0.337060
 C         4.152328        -0.344269        -0.911464
 C         3.398523        -1.157065         0.146376
 O         2.002766        -1.224655        -0.293734
 C         3.303549         0.187895         1.003582
 O         1.964502         0.442243         1.268177
 H        -0.164075        -1.037600         0.498948
 H        -0.354605         0.870043         0.415380
 H        -0.488974        -0.235902        -0.987217
 H         2.160508         0.946082        -2.027927
 H         1.880761         2.235225        -0.698866
 H         4.226122         1.938841        -0.277408
 H         3.902012        -0.594846        -1.927950
 H         5.328768        -0.499228        -0.850772
 H         3.678281        -2.071202         0.652677
 H         4.040879         0.288665         1.740283
