19
Iteration:  4033
 C        -0.127595        -0.000585        -0.044899
 C         1.476199         0.073800        -0.012535
 C         2.104437         1.125155        -0.859526
 C         3.581111         0.912481        -0.343475
 C         4.270776        -0.324766        -0.938565
 C         3.370728        -1.116170         0.120471
 O         2.052659        -1.226841        -0.299768
 C         3.329788         0.179521         0.958133
 O         2.046448         0.368558         1.284814
 H        -0.460188        -0.732110         0.755090
 H        -0.435279         0.967194         0.367837
 H        -0.528367        -0.180804        -1.010840
 H         2.105139         0.982944        -1.979174
 H         1.793186         2.265495        -0.605351
 H         4.193012         1.785332        -0.302049
 H         4.398805        -0.577633        -2.021229
 H         5.271334        -0.439407        -0.539932
 H         3.809061        -2.127825         0.262592
 H         3.924187         0.420141         1.839969
