19
Iteration:  3677
 C        -0.069174        -0.034271        -0.110523
 C         1.530026         0.030578        -0.039353
 C         2.193634         1.132418        -0.910477
 C         3.600684         0.993838        -0.365286
 C         4.190422        -0.357632        -1.029326
 C         3.424121        -1.116474         0.143234
 O         2.010454        -1.272003        -0.194336
 C         3.327418         0.181607         1.025998
 O         1.965937         0.445669         1.343053
 H        -0.497452        -0.659883         0.696556
 H        -0.491850         0.937136        -0.006153
 H        -0.272843        -0.415222        -1.059517
 H         2.114032         1.110696        -2.036010
 H         1.643575         2.105963        -0.492490
 H         4.191231         1.916183        -0.515039
 H         4.042826        -0.614853        -2.035938
 H         5.236733        -0.456982        -0.804538
 H         3.721237        -2.104679         0.517294
 H         4.047137         0.268673         1.874901
