19
Iteration:  4229charge 0 multiplicity 1
 C        -0.089400         0.012891        -0.094353
 C         1.485981         0.083426         0.019546
 C         2.219744         1.023815        -0.856123
 C         3.640772         0.985267        -0.384687
 C         4.178737        -0.250009        -0.904197
 C         3.382715        -1.082756         0.109588
 O         1.983502        -1.261417        -0.280669
 C         3.323534         0.173616         0.937443
 O         2.002452         0.367013         1.359695
 H        -0.311245        -0.842247         0.622717
 H        -0.472692         1.017585         0.125071
 H        -0.362259        -0.235382        -1.125595
 H         2.027136         0.770336        -1.932394
 H         1.922154         2.002398        -0.712056
 H         4.279916         1.947434        -0.482480
 H         4.027420        -0.588117        -2.032983
 H         5.345262        -0.525714        -0.822906
 H         3.801171        -2.077641         0.427595
 H         3.981933         0.314392         1.832397
