19
Iteration:  3313
 C        -0.059430         0.074183         0.069381
 C         1.398559        -0.004082        -0.097355
 C         2.176754         1.091705        -0.952531
 C         3.662891         1.039542        -0.367672
 C         4.340651        -0.295095        -0.937167
 C         3.362659        -1.120109         0.133047
 O         2.025360        -1.245619        -0.331430
 C         3.333170         0.200748         1.060070
 O         1.912079         0.291364         1.244788
 H        -0.095721        -0.497842         1.018346
 H        -0.279697         1.072639         0.165606
 H        -0.731279        -0.456738        -0.549823
 H         2.228799         0.827248        -2.081618
 H         1.878962         2.192897        -0.747930
 H         4.206510         2.004518        -0.249840
 H         4.181801        -0.551041        -2.027654
 H         5.276921        -0.389523        -0.475895
 H         3.468658        -2.233923         0.512535
 H         4.002050         0.280524         2.005451
