19
Iteration:  4949charge 0 multiplicity 1
 C        -0.084120         0.013303         0.052783
 C         1.402679         0.055168        -0.071295
 C         2.154524         1.092455        -0.972026
 C         3.705188         1.056033        -0.359144
 C         4.298012        -0.290627        -0.920316
 C         3.416494        -1.146754         0.182225
 O         2.004752        -1.203412        -0.352491
 C         3.340198         0.128040         0.986083
 O         1.938797         0.331722         1.288116
 H        -0.514445        -0.676479         0.795232
 H        -0.386207         0.967445         0.542379
 H        -0.592887        -0.072347        -0.875825
 H         2.213279         0.794721        -2.053689
 H         1.723348         2.046739        -0.827775
 H         4.361767         1.905261        -0.054524
 H         4.114870        -0.711154        -2.000109
 H         5.313771        -0.534366        -0.699454
 H         3.770636        -2.128740         0.527227
 H         3.824711         0.291768         1.975018
