19
Iteration:  2744charge 0 multiplicity 1
 C        -0.103442        -0.067845         0.034147
 C         1.441530         0.111489        -0.019696
 C         2.192731         1.169753        -0.917763
 C         3.592283         0.914325        -0.415631
 C         4.359714        -0.417487        -0.883650
 C         3.380349        -1.122092         0.106560
 O         2.008353        -1.163497        -0.314828
 C         3.347547         0.193706         0.923942
 O         1.961643         0.403833         1.318125
 H        -0.312653        -0.614677         0.955242
 H        -0.665361         0.842498        -0.163231
 H        -0.455883        -0.639344        -0.814607
 H         1.877412         0.988615        -1.978071
 H         1.722614         2.151817        -0.534804
 H         4.206715         1.781472        -0.598396
 H         4.473922        -0.704418        -1.987502
 H         5.287487        -0.395788        -0.290434
 H         3.601133        -2.100071         0.668469
 H         3.938931         0.293189         1.836515
