19
Iteration:  3946charge 0 multiplicity 1
 C        -0.044506        -0.100147        -0.114129
 C         1.395777         0.092546         0.022729
 C         2.197985         1.144541        -0.804370
 C         3.675546         0.985488        -0.425542
 C         4.213327        -0.368132        -0.955630
 C         3.376332        -1.127327         0.111240
 O         1.994694        -1.176742        -0.247485
 C         3.412538         0.244125         0.999523
 O         1.993614         0.362463         1.310599
 H        -0.258657        -1.009311         0.543750
 H        -0.715359         0.744566         0.077121
 H        -0.412535        -0.369356        -1.103926
 H         1.938503         1.171168        -1.879934
 H         1.720070         2.147254        -0.469522
 H         4.328535         1.792425        -0.608712
 H         3.881957        -0.653201        -1.973578
 H         5.238729        -0.517759        -0.828706
 H         3.559143        -2.214853         0.350397
 H         3.909193         0.315828         1.966379
