19
Iteration:  4192charge 0 multiplicity 1
 C        -0.066610        -0.014646        -0.125393
 C         1.437295         0.104735         0.009582
 C         2.168451         1.223490        -0.819891
 C         3.584686         0.926421        -0.434158
 C         4.188076        -0.408493        -0.923023
 C         3.460859        -1.136013         0.187624
 O         2.060532        -1.232452        -0.284591
 C         3.360183         0.177309         0.967482
 O         1.992014         0.371769         1.284819
 H        -0.416158        -0.955438         0.372598
 H        -0.669538         0.822179         0.349409
 H        -0.437731        -0.174223        -1.166932
 H         1.750009         1.084995        -1.835671
 H         1.802501         2.186539        -0.314162
 H         4.218780         1.818527        -0.359082
 H         3.824516        -0.715030        -1.830451
 H         5.245546        -0.293164        -0.734954
 H         3.793746        -2.074877         0.582826
 H         4.179063         0.423473         1.669441
