19
Iteration:   208
 C        -0.023582         0.043592        -0.095094
 C         1.456546         0.144454         0.043846
 C         2.160473         1.105787        -0.957653
 C         3.553588         0.963227        -0.414423
 C         4.179762        -0.325152        -0.934772
 C         3.381082        -1.117052         0.102031
 O         2.049099        -1.333920        -0.111469
 C         3.379110         0.269342         0.903313
 O         1.996471         0.289609         1.310134
 H        -0.439421        -0.607433         0.772429
 H        -0.349249         1.002720         0.016207
 H        -0.316551        -0.406678        -1.085148
 H         2.105525         0.666339        -1.935669
 H         1.793507         2.127551        -0.906553
 H         3.994671         1.915406        -0.469838
 H         4.146895        -0.560370        -1.994978
 H         5.184941        -0.307022        -0.594819
 H         3.787525        -1.912261         0.580175
 H         4.041290         0.600535         1.763016
