19
Iteration:  1853charge 0 multiplicity 1
 C        -0.013514         0.021273        -0.085494
 C         1.435104         0.066145        -0.066204
 C         2.155608         1.079529        -0.924877
 C         3.620159         0.949539        -0.386898
 C         4.203441        -0.433389        -0.983918
 C         3.503685        -1.066723         0.136107
 O         2.054745        -1.272875        -0.166986
 C         3.303962         0.254836         0.961589
 O         1.921016         0.368429         1.340525
 H        -0.372298        -0.821902         0.507100
 H        -0.337570         0.956801         0.535665
 H        -0.331154         0.160565        -1.160554
 H         2.221491         1.062637        -1.977480
 H         1.649120         1.980409        -0.656239
 H         4.022854         2.075734        -0.461803
 H         3.708962        -0.562745        -1.981053
 H         5.241116        -0.514364        -0.791220
 H         3.898507        -1.988333         0.646240
 H         3.908809         0.487846         1.846571
