19
Iteration:   768
 C         0.031722         0.002755        -0.126767
 C         1.532732         0.037839         0.065667
 C         2.055817         1.142852        -0.957726
 C         3.543173         1.010011        -0.403575
 C         4.201709        -0.416753        -0.978390
 C         3.426899        -1.126878         0.119450
 O         2.050774        -1.219546        -0.176746
 C         3.312806         0.140017         1.041164
 O         1.992757         0.415557         1.337933
 H        -0.567014        -0.665610         0.512258
 H        -0.285776         0.988286        -0.110663
 H        -0.263144        -0.110317        -1.221575
 H         2.009103         0.892550        -2.124847
 H         1.659026         2.141639        -0.728503
 H         4.124896         2.048267        -0.599650
 H         4.067863        -0.727407        -2.018937
 H         5.297999        -0.433289        -0.673544
 H         3.719993        -2.125037         0.441082
 H         4.005508         0.202523         1.922663
