19
Iteration:  3840charge 0 multiplicity 1
 C        -0.116950        -0.047527         0.059661
 C         1.423105         0.062773        -0.048697
 C         2.231799         1.192783        -0.904868
 C         3.633201         0.995065        -0.404698
 C         4.286098        -0.387700        -0.901010
 C         3.396021        -1.123487         0.202886
 O         2.068535        -1.210634        -0.389088
 C         3.301642         0.228414         0.933210
 O         1.944258         0.344580         1.311368
 H        -0.373124        -0.872471         0.835181
 H        -0.392644         0.920513         0.500820
 H        -0.532897        -0.238160        -0.909832
 H         2.082798         0.971006        -1.972567
 H         1.691256         2.058905        -0.625941
 H         4.280544         1.919978        -0.349951
 H         3.942329        -0.678780        -1.972925
 H         5.385447        -0.640814        -0.799202
 H         3.634566        -2.125688         0.579754
 H         3.941618         0.327509         1.800099
