19
Iteration:  3064charge 0 multiplicity 1
 C        -0.089282         0.112045         0.031925
 C         1.447593         0.016486        -0.079556
 C         2.171699         1.126587        -0.960036
 C         3.633621         0.945923        -0.308439
 C         4.248081        -0.322871        -0.916925
 C         3.430525        -1.102707         0.077074
 O         2.090767        -1.257206        -0.303755
 C         3.316681         0.135567         1.046554
 O         1.910816         0.341768         1.275241
 H        -0.541913        -0.638670         0.746053
 H        -0.349102         1.041364         0.494586
 H        -0.518094        -0.071475        -0.965872
 H         2.131299         0.715243        -1.978579
 H         1.836963         2.166910        -0.909227
 H         4.256336         1.836813        -0.323853
 H         4.038193        -0.374250        -1.915365
 H         5.336728        -0.473861        -0.839853
 H         3.768706        -2.023875         0.540477
 H         3.831029         0.358423         2.002792
