19
Iteration:  4444charge 0 multiplicity 1
 C        -0.080124        -0.003352        -0.043761
 C         1.471422         0.081414        -0.040103
 C         2.218188         1.099700        -0.886053
 C         3.631709         0.974107        -0.341421
 C         4.206237        -0.376032        -0.929926
 C         3.423584        -1.124358         0.165728
 O         2.018698        -1.219016        -0.322948
 C         3.376167         0.232157         1.019422
 O         1.936883         0.351186         1.309646
 H        -0.410396        -0.665116         0.778060
 H        -0.491394         0.992230        -0.036388
 H        -0.616471        -0.398753        -0.904524
 H         2.156799         0.964763        -2.014536
 H         1.693684         2.105324        -0.570870
 H         4.204246         1.927087        -0.427280
 H         3.879607        -0.648808        -2.073015
 H         5.321882        -0.490458        -1.005173
 H         3.697415        -2.168222         0.390503
 H         4.033185         0.489317         1.837910
