19
Iteration:  4535
 C        -0.066026        -0.026872         0.099408
 C         1.443908         0.024429        -0.133740
 C         2.197211         1.090546        -0.861051
 C         3.619477         0.966244        -0.365080
 C         4.302802        -0.401931        -0.855696
 C         3.327222        -1.085506         0.076155
 O         2.019796        -1.232292        -0.398050
 C         3.324103         0.282759         1.007787
 O         1.961507         0.390778         1.288756
 H        -0.419562        -0.834547         0.671854
 H        -0.362493         0.911833         0.562854
 H        -0.597987        -0.219021        -0.854718
 H         2.046900         0.978467        -1.981514
 H         1.826676         2.084186        -0.776188
 H         4.184374         1.917577        -0.338108
 H         4.317565        -0.689982        -1.881227
 H         5.416292        -0.555593        -0.592990
 H         3.736666        -1.945939         0.623463
 H         4.085406         0.447410         1.780236
