19
Iteration:  1447
 C        -0.067473        -0.135989        -0.131069
 C         1.487781         0.062423         0.030213
 C         2.181389         1.162379        -0.859140
 C         3.683647         0.959040        -0.367209
 C         4.221422        -0.422200        -0.998465
 C         3.326666        -1.131410         0.116063
 O         2.006584        -1.166755        -0.284040
 C         3.363732         0.246534         0.987629
 O         1.981099         0.408237         1.366959
 H        -0.314793        -0.938791         0.440803
 H        -0.558028         0.685388         0.359822
 H        -0.447145        -0.254983        -1.155508
 H         1.983842         1.153175        -1.913272
 H         2.069299         2.216301        -0.402444
 H         4.332366         1.830930        -0.642848
 H         3.917665        -0.537286        -2.070838
 H         5.267277        -0.565435        -0.778287
 H         3.460124        -2.088668         0.638929
 H         3.844424         0.573881         1.947439
