19
Iteration:  4130charge 0 multiplicity 1
 C        -0.096760         0.044657         0.035347
 C         1.464656         0.025763        -0.021413
 C         2.126887         1.030838        -0.925757
 C         3.596405         1.002700        -0.433813
 C         4.334818        -0.292276        -0.830083
 C         3.400091        -1.116851         0.036960
 O         1.993450        -1.198137        -0.363935
 C         3.328287         0.170434         0.980987
 O         1.996686         0.349114         1.367625
 H        -0.469789        -0.619776         0.839475
 H        -0.359322         1.081251         0.244393
 H        -0.499799        -0.185478        -0.909136
 H         1.948062         0.645759        -1.911145
 H         1.839388         2.017283        -0.933794
 H         4.222620         1.822186        -0.205094
 H         4.336845        -0.457510        -1.945371
 H         5.423751        -0.419139        -0.601192
 H         3.631087        -2.117150         0.455483
 H         3.953019         0.260285         1.882725
