19
Iteration:   180
 C        -0.102378        -0.035187         0.098630
 C         1.394445         0.008185         0.007754
 C         2.141105         0.983444        -0.936055
 C         3.613537         0.891606        -0.415830
 C         4.418025        -0.342536        -0.874080
 C         3.436276        -1.065086         0.089867
 O         1.964912        -1.249656        -0.358392
 C         3.357090         0.250091         0.964692
 O         1.944631         0.503594         1.281718
 H        -0.478554        -0.676460         0.836283
 H        -0.198877         1.115585         0.427732
 H        -0.633205        -0.130510        -0.821802
 H         1.976597         0.765988        -2.022079
 H         1.814863         2.046503        -0.779727
 H         3.953453         1.978782        -0.547882
 H         4.464687        -0.677937        -1.948162
 H         5.513206        -0.304654        -0.544651
 H         3.709742        -2.093679         0.623570
 H         3.947330         0.452068         1.863479
