19
Iteration:  1116charge 0 multiplicity 1
 C        -0.113330         0.006051         0.076813
 C         1.441225         0.104409        -0.008648
 C         2.185848         1.060897        -0.899346
 C         3.613954         0.952256        -0.385967
 C         4.285990        -0.325797        -0.816417
 C         3.384583        -1.167363         0.089269
 O         2.000751        -1.189527        -0.388037
 C         3.319844         0.241131         0.932777
 O         1.980721         0.356151         1.288205
 H        -0.247125        -0.995020         0.649324
 H        -0.501785         0.921962         0.482911
 H        -0.481082        -0.023094        -0.929166
 H         2.153622         0.694768        -2.018422
 H         1.780697         2.068314        -0.863519
 H         4.208536         1.778094        -0.635001
 H         4.535855        -0.677641        -1.800228
 H         5.258424        -0.467125        -0.253857
 H         3.868540        -2.105711         0.506824
 H         4.019891         0.509518         1.677956
