19
Iteration:  2454charge 0 multiplicity 1
 C        -0.024700         0.063065        -0.044287
 C         1.458142         0.007744        -0.005069
 C         2.132743         1.084876        -0.824241
 C         3.575487         0.960877        -0.447913
 C         4.223828        -0.349616        -0.923301
 C         3.419227        -1.077845         0.168072
 O         2.058743        -1.357375        -0.287749
 C         3.416788         0.268889         0.969627
 O         1.938930         0.379241         1.257477
 H        -0.601333        -0.740158         0.463287
 H        -0.361959         0.964231         0.527599
 H        -0.317553         0.168958        -1.083150
 H         1.778360         1.069323        -1.900079
 H         1.602463         2.072618        -0.564736
 H         4.280084         1.843966        -0.429359
 H         4.042088        -0.602266        -1.942314
 H         5.323718        -0.321713        -0.696189
 H         3.689755        -2.008864         0.601141
 H         3.908948         0.526136         1.875569
