19
Iteration:    57
 C        -0.125541        -0.025558         0.073948
 C         1.395821         0.070351        -0.011775
 C         2.183390         1.079857        -0.952008
 C         3.615177         0.910985        -0.437012
 C         4.279728        -0.384242        -0.951677
 C         3.484690        -1.146626         0.161605
 O         2.088792        -1.318014        -0.281818
 C         3.305031         0.257534         0.944563
 O         1.939188         0.546359         1.284538
 H        -0.326332        -0.524933         1.078657
 H        -0.543062         0.897443         0.100021
 H        -0.610309        -0.616829        -0.748670
 H         2.049248         0.984408        -2.001442
 H         1.778800         2.053289        -0.673737
 H         4.178070         1.798458        -0.336489
 H         4.104743        -0.627316        -2.035187
 H         5.324733        -0.388979        -0.760748
 H         3.677152        -2.037323         0.668027
 H         3.983798         0.488324         1.815089
