19
Iteration:  1257
 C        -0.113267         0.091915         0.081246
 C         1.438124         0.053901        -0.033163
 C         2.172153         1.074059        -0.990904
 C         3.657336         0.982330        -0.331175
 C         4.281004        -0.274389        -0.859132
 C         3.474765        -1.139754         0.051468
 O         2.078888        -1.279549        -0.294897
 C         3.277609         0.163788         0.987843
 O         1.936823         0.354736         1.242326
 H        -0.715794        -0.598264         0.727955
 H        -0.199039         1.096884         0.521240
 H        -0.710324         0.247476        -0.795498
 H         1.838796         0.718897        -2.102087
 H         1.743303         2.069921        -0.755493
 H         4.045922         1.959551        -0.323954
 H         4.223271        -0.770431        -1.841570
 H         5.407102        -0.412047        -0.565902
 H         3.736400        -2.328785         0.295839
 H         3.852981         0.215811         1.886780
