19
Iteration:   156charge 0 multiplicity 1
 C        -0.094908        -0.053202         0.181507
 C         1.448559         0.145551        -0.028685
 C         2.186171         1.131364        -1.073793
 C         3.634519         0.977698        -0.449276
 C         4.219055        -0.424648        -0.836651
 C         3.435680        -1.117677         0.230750
 O         2.113179        -1.208666        -0.393628
 C         3.321438         0.208749         0.994499
 O         1.907720         0.400783         1.246564
 H        -0.148299        -0.964425         0.788776
 H        -0.555894         0.775317         0.732832
 H        -0.654956        -0.231258        -0.741982
 H         2.019423         0.740892        -2.067259
 H         1.712042         2.127163        -1.067025
 H         4.184373         1.920322        -0.576983
 H         4.111904        -0.875367        -1.856412
 H         5.285228        -0.474730        -0.654671
 H         3.698199        -2.069609         0.697535
 H         3.931621         0.395750         1.955821
