19
Iteration:  4782
 C         0.015797        -0.007318         0.022460
 C         1.458047         0.017530         0.032411
 C         2.189773         1.190091        -0.938241
 C         3.678454         0.912736        -0.372849
 C         4.216270        -0.344984        -0.974338
 C         3.415062        -1.107169         0.090858
 O         2.049647        -1.247897        -0.294935
 C         3.290001         0.210509         0.985404
 O         1.872782         0.379939         1.303170
 H        -0.465983        -0.763426         0.675702
 H        -0.575748         0.863527         0.356479
 H        -0.236142        -0.257969        -1.091456
 H         2.351031         1.143383        -2.000353
 H         1.729019         2.137144        -0.549455
 H         4.216957         1.876170        -0.280378
 H         3.888463        -0.539316        -2.086212
 H         5.306537        -0.462022        -0.741490
 H         3.724513        -2.037980         0.591743
 H         3.862840         0.295737         1.928186
