19
Iteration:  1361charge 0 multiplicity 1
 C        -0.093761         0.056229        -0.028538
 C         1.430835         0.054425        -0.004890
 C         2.135064         1.120089        -0.925201
 C         3.579033         0.937314        -0.333771
 C         4.288879        -0.331784        -0.907361
 C         3.497721        -1.164885         0.089820
 O         2.003553        -1.183856        -0.322952
 C         3.327730         0.138661         1.017882
 O         2.002318         0.352942         1.311638
 H        -0.376530        -0.566631         0.892256
 H        -0.573499         1.042177         0.049567
 H        -0.435530        -0.521087        -0.930075
 H         2.041619         0.869159        -1.960422
 H         1.834808         2.244428        -0.788136
 H         4.059967         1.950848        -0.350490
 H         4.064311        -0.481683        -2.007385
 H         5.333967        -0.444411        -0.694468
 H         3.597692        -2.154054         0.390634
 H         4.096820         0.459477         1.769980
