19
Iteration:  4915
 C        -0.041790         0.031040        -0.051750
 C         1.424300         0.094587         0.074967
 C         2.119266         1.117334        -0.858982
 C         3.681786         1.000155        -0.393747
 C         4.272379        -0.325759        -0.915854
 C         3.389801        -1.147599         0.102049
 O         2.017013        -1.275312        -0.327701
 C         3.352275         0.156937         0.952564
 O         1.949314         0.383625         1.322655
 H        -0.294316        -0.854248         0.446461
 H        -0.381597         1.008130         0.165653
 H        -0.142785        -0.118908        -1.143844
 H         1.812074         0.854070        -1.860691
 H         1.556059         2.010865        -0.724060
 H         4.084759         1.977718        -0.385786
 H         4.247896        -0.659122        -2.058635
 H         5.316730        -0.400302        -0.550547
 H         3.704891        -2.108989         0.521727
 H         3.980144         0.263730         1.846131
