19
Iteration:  1723
 C        -0.054329        -0.014208        -0.199827
 C         1.411974         0.038392         0.048562
 C         2.176238         1.086112        -0.855191
 C         3.610842         0.919338        -0.397658
 C         4.178940        -0.363357        -0.948974
 C         3.410624        -1.120274         0.180198
 O         1.976334        -1.221230        -0.202920
 C         3.395519         0.266892         0.946585
 O         2.058976         0.398738         1.344091
 H        -0.484224        -0.748748         0.497321
 H        -0.494118         0.997477        -0.014912
 H        -0.308534        -0.409351        -1.169943
 H         1.937802         0.860416        -1.936220
 H         1.746275         2.098507        -0.588120
 H         4.093185         1.948338        -0.504958
 H         4.050070        -0.456109        -2.082056
 H         5.304785        -0.243268        -0.866235
 H         3.490921        -2.108690         0.600844
 H         4.265484         0.292057         1.614955
