19
Iteration:  2743
 C        -0.111258        -0.066807         0.024752
 C         1.435806         0.112689        -0.017005
 C         2.198227         1.169350        -0.914375
 C         3.590473         0.914062        -0.428150
 C         4.361132        -0.420193        -0.882122
 C         3.378269        -1.115889         0.109495
 O         2.010594        -1.170589        -0.316020
 C         3.352647         0.189683         0.924120
 O         1.960926         0.402888         1.323817
 H        -0.295643        -0.588550         0.974185
 H        -0.620894         0.857864        -0.135406
 H        -0.427683        -0.647476        -0.830745
 H         1.875995         1.008172        -1.973094
 H         1.711004         2.144591        -0.540277
 H         4.179938         1.799855        -0.563704
 H         4.463341        -0.688627        -1.984714
 H         5.287586        -0.379442        -0.336402
 H         3.593990        -2.078146         0.697455
 H         3.947051         0.290159         1.847859
