19
Iteration:  1916charge 0 multiplicity 1
 C        -0.080226        -0.082957         0.043546
 C         1.406578         0.182859         0.028380
 C         2.141487         1.121474        -0.939030
 C         3.598853         0.936573        -0.469956
 C         4.272767        -0.401391        -0.849408
 C         3.452075        -1.117526         0.200372
 O         2.051987        -1.188484        -0.345070
 C         3.330543         0.179897         0.948221
 O         1.947774         0.383819         1.284790
 H        -0.349433        -0.830332         0.817144
 H        -0.791306         0.792598         0.185297
 H        -0.379041        -0.385618        -0.965199
 H         2.070743         1.005552        -2.045287
 H         1.974750         2.233619        -0.703778
 H         4.297648         1.829638        -0.567363
 H         4.210367        -0.756451        -1.941803
 H         5.346950        -0.359963        -0.716945
 H         3.871668        -2.082663         0.662064
 H         4.005701         0.429365         1.778938
