19
Iteration:  4612charge 0 multiplicity 1
 C        -0.058396        -0.009241        -0.113519
 C         1.428737         0.081422        -0.048355
 C         2.200148         1.199840        -0.871212
 C         3.606492         0.989023        -0.321159
 C         4.163102        -0.378034        -1.051078
 C         3.446369        -1.150379         0.116465
 O         2.047226        -1.335323        -0.200003
 C         3.328090         0.234292         1.006874
 O         1.945224         0.375223         1.335287
 H        -0.334951        -0.708942         0.591453
 H        -0.525552         0.927992         0.078382
 H        -0.480859        -0.228692        -1.082590
 H         2.280247         1.282052        -1.978872
 H         1.876674         2.102681        -0.461103
 H         4.302732         1.815338        -0.214870
 H         3.818983        -0.663259        -2.011573
 H         5.326811        -0.418501        -0.890476
 H         4.147186        -1.902084         0.428362
 H         4.052593         0.372918         1.848877
