19
Iteration:  2621charge 0 multiplicity 1
 C        -0.146653        -0.033642         0.121544
 C         1.475956         0.071842        -0.067877
 C         2.172273         1.035505        -0.899099
 C         3.652055         0.950770        -0.413369
 C         4.279521        -0.413121        -0.828484
 C         3.425192        -1.070748         0.150100
 O         2.049198        -1.216131        -0.390991
 C         3.289257         0.265355         0.933241
 O         1.946543         0.400035         1.243264
 H        -0.237602        -0.879734         0.760584
 H        -0.434168         0.787665         0.735208
 H        -0.722621         0.014491        -0.805471
 H         2.141171         0.996539        -2.026634
 H         1.841606         2.130671        -0.760840
 H         4.340283         1.823335        -0.461776
 H         4.150990        -0.581307        -1.923826
 H         5.332800        -0.485404        -0.577093
 H         3.715852        -2.032170         0.676783
 H         3.889399         0.437652         1.869863
