19
Iteration:  3647charge 0 multiplicity 1
 C        -0.075606         0.111904        -0.107678
 C         1.495218         0.026538        -0.008823
 C         2.168543         1.099467        -0.898614
 C         3.596285         1.000343        -0.408553
 C         4.130103        -0.391599        -1.002501
 C         3.466236        -1.045344         0.217484
 O         2.106796        -1.312540        -0.249528
 C         3.348017         0.236895         1.016568
 O         1.938402         0.317797         1.335730
 H        -0.719606        -0.675815         0.409729
 H        -0.525470         1.066998         0.132888
 H        -0.316135        -0.180069        -1.154333
 H         2.106650         0.957379        -1.952284
 H         1.744526         1.955541        -0.450630
 H         4.161737         1.942246        -0.625916
 H         3.839897        -0.726750        -1.969919
 H         5.234120        -0.524917        -0.851466
 H         3.869528        -1.941553         0.660242
 H         4.061480         0.406987         1.817562
