19
Iteration:  1358
 C        -0.067360         0.018287        -0.040288
 C         1.396455         0.074014        -0.006351
 C         2.161311         1.110398        -0.913516
 C         3.579401         0.946474        -0.348439
 C         4.257507        -0.355433        -0.923850
 C         3.499362        -1.145711         0.082083
 O         1.998114        -1.182590        -0.334640
 C         3.328437         0.150615         1.047893
 O         2.006483         0.358031         1.315395
 H        -0.334143        -0.432667         0.836335
 H        -0.552685         1.007027         0.133470
 H        -0.440414        -0.470784        -0.927495
 H         2.084594         0.924962        -2.034407
 H         1.808802         2.177191        -0.713838
 H         4.104596         1.917492        -0.320517
 H         4.001143        -0.513340        -1.964939
 H         5.323818        -0.374097        -0.665190
 H         3.713358        -2.208602         0.474882
 H         4.078556         0.406070         1.803088
