19
Iteration:  3280charge 0 multiplicity 1
 C        -0.060729         0.107590        -0.094054
 C         1.443193         0.053000         0.069455
 C         2.096774         1.030538        -0.860032
 C         3.557383         0.937105        -0.432261
 C         4.281773        -0.317393        -0.948671
 C         3.397822        -1.142234         0.092866
 O         2.100647        -1.241951        -0.343334
 C         3.354829         0.167745         1.038230
 O         1.945508         0.375708         1.383463
 H        -0.530838        -0.648424         0.559869
 H        -0.447235         1.059710         0.139638
 H        -0.276632        -0.030487        -1.117449
 H         1.979148         0.934697        -1.982469
 H         1.892115         2.107421        -0.778305
 H         4.093221         1.910872        -0.352919
 H         4.368642        -0.547307        -2.063448
 H         5.306985        -0.324866        -0.649804
 H         3.793023        -2.210525         0.319942
 H         3.951295         0.394507         1.985178
