19
Iteration:  1496
 C        -0.060244         0.063343        -0.027448
 C         1.480250         0.016322        -0.031771
 C         2.138720         1.026975        -0.877148
 C         3.671335         0.977040        -0.352570
 C         4.234479        -0.371445        -0.951632
 C         3.427966        -1.005035         0.100488
 O         2.038177        -1.255900        -0.259297
 C         3.295525         0.216617         0.961761
 O         1.927257         0.339371         1.297515
 H        -0.561798        -0.774424         0.596683
 H        -0.280867         1.024773         0.536960
 H        -0.388917         0.205803        -1.061510
 H         2.259526         0.785102        -1.966493
 H         1.826061         2.013978        -0.738021
 H         4.232423         1.885530        -0.280266
 H         3.987375        -0.639958        -1.952377
 H         5.296925        -0.382580        -0.682407
 H         3.649444        -2.020045         0.408836
 H         3.996847         0.303393         1.751726
