19
Iteration:   353
 C        -0.103016        -0.033768        -0.130865
 C         1.441253         0.086984         0.108676
 C         2.092387         1.098707        -0.854284
 C         3.637181         0.983709        -0.345474
 C         4.238576        -0.351209        -0.961506
 C         3.357609        -1.097916         0.130693
 O         2.062707        -1.297379        -0.295746
 C         3.396908         0.182013         0.906482
 O         2.003302         0.462271         1.336766
 H        -0.389025        -0.927146         0.333638
 H        -0.692377         0.870866         0.405098
 H        -0.204418        -0.129358        -1.210871
 H         1.971388         0.845886        -1.926618
 H         1.654667         2.089673        -0.587473
 H         4.407130         1.853116        -0.375100
 H         3.963400        -0.678097        -1.986524
 H         5.327557        -0.485714        -0.859152
 H         3.787728        -1.915376         0.667019
 H         4.109414         0.244223         1.726802
