19
Iteration:   158
 C        -0.102354        -0.041379         0.186628
 C         1.457196         0.146179        -0.016051
 C         2.184271         1.109556        -1.054871
 C         3.637510         0.962191        -0.440824
 C         4.224416        -0.419024        -0.844691
 C         3.428359        -1.116782         0.217838
 O         2.133226        -1.211131        -0.401591
 C         3.295959         0.224024         0.983903
 O         1.902150         0.411360         1.240248
 H        -0.143271        -0.933674         0.751518
 H        -0.622812         0.835825         0.793346
 H        -0.622461        -0.273505        -0.722760
 H         2.026967         0.670945        -2.066968
 H         1.693148         2.114115        -1.005390
 H         4.210137         1.942548        -0.554739
 H         4.142714        -0.828518        -1.894520
 H         5.340989        -0.502708        -0.624006
 H         3.695520        -2.184418         0.719705
 H         3.932721         0.411265         1.879267
