19
Iteration:   757
 C        -0.013680        -0.036715        -0.085253
 C         1.431928         0.127453        -0.010929
 C         2.128923         1.188151        -0.942817
 C         3.581870         0.932201        -0.427774
 C         4.213662        -0.419988        -0.907643
 C         3.413431        -1.106456         0.133267
 O         2.067978        -1.234433        -0.196044
 C         3.335603         0.194574         0.939590
 O         1.981847         0.392180         1.327286
 H        -0.421737        -0.830933         0.554550
 H        -0.436401         0.809746         0.347181
 H        -0.279778        -0.258934        -1.166099
 H         1.882035         1.132420        -2.088777
 H         1.573785         2.062856        -0.582090
 H         4.387547         1.777199        -0.248011
 H         4.030135        -0.768766        -1.930385
 H         5.316756        -0.514173        -0.689470
 H         3.793448        -2.030138         0.574312
 H         3.979104         0.374690         1.833851
