19
Iteration:  1620
 C        -0.120960         0.040728        -0.106142
 C         1.442169         0.036479         0.013432
 C         2.165366         1.088085        -0.917050
 C         3.675225         1.008404        -0.380698
 C         4.205227        -0.312232        -0.973166
 C         3.370642        -1.108503         0.097246
 O         2.035285        -1.244450        -0.205239
 C         3.391048         0.215268         1.006095
 O         1.980468         0.330378         1.337697
 H        -0.593509        -0.585163         0.643072
 H        -0.189275         1.077083         0.288925
 H        -0.324521        -0.227039        -1.210243
 H         2.133485         0.788062        -1.921025
 H         1.622618         1.952601        -0.884050
 H         4.244551         1.971527        -0.528220
 H         4.013246        -0.786901        -1.923256
 H         5.214262        -0.561826        -0.725205
 H         3.660088        -2.141538         0.500580
 H         4.144134         0.346524         1.853297
