19
Iteration:  1765
 C        -0.074878         0.051261        -0.049429
 C         1.468936         0.023226        -0.087074
 C         2.171961         1.062244        -0.874070
 C         3.587853         0.913971        -0.382602
 C         4.209902        -0.301189        -0.968928
 C         3.415467        -1.150178         0.191784
 O         2.057412        -1.251034        -0.243350
 C         3.336393         0.222656         0.961724
 O         1.981794         0.405986         1.310961
 H        -0.510377        -0.351322         0.928154
 H        -0.283644         1.136241        -0.178376
 H        -0.532811        -0.600693        -0.803730
 H         2.119273         0.901461        -1.907011
 H         1.709773         2.034767        -0.670324
 H         4.275212         1.893776        -0.414888
 H         3.895226        -0.544483        -2.042483
 H         5.291556        -0.459038        -0.960156
 H         3.893891        -2.043628         0.675735
 H         3.850585         0.513198         1.880406
