19
Iteration:  2620charge 0 multiplicity 1
 C        -0.151787        -0.034230         0.116457
 C         1.486760         0.065551        -0.068778
 C         2.171369         1.028850        -0.903440
 C         3.649325         0.954290        -0.409345
 C         4.284363        -0.399407        -0.840616
 C         3.425211        -1.072751         0.156884
 O         2.041558        -1.216061        -0.384650
 C         3.298805         0.263211         0.931623
 O         1.942730         0.402757         1.248163
 H        -0.260843        -0.876071         0.771940
 H        -0.427490         0.817558         0.768400
 H        -0.739557        -0.011122        -0.833175
 H         2.158982         1.012598        -2.040495
 H         1.877357         2.125354        -0.744445
 H         4.354190         1.854917        -0.494853
 H         4.153534        -0.599207        -1.902452
 H         5.345628        -0.514563        -0.570899
 H         3.692336        -2.045369         0.627063
 H         3.849405         0.408636         1.885459
