19
Iteration:  3802
 C        -0.030815        -0.050895        -0.164748
 C         1.470096        -0.001785         0.031603
 C         2.144842         1.116528        -0.836123
 C         3.648488         1.019508        -0.426340
 C         4.185630        -0.369119        -0.949638
 C         3.384500        -1.143410         0.120422
 O         2.023462        -1.236075        -0.261936
 C         3.301455         0.176663         0.946342
 O         2.019509         0.461036         1.416000
 H        -0.384573        -1.005128         0.257835
 H        -0.605010         0.774747         0.390718
 H        -0.389629        -0.037270        -1.263243
 H         2.046247         1.050304        -1.914794
 H         1.986473         2.198280        -0.708126
 H         4.122535         1.976042        -0.327905
 H         3.940581        -0.511278        -1.997065
 H         5.272808        -0.441451        -0.880499
 H         3.722644        -2.032302         0.685544
 H         4.073154         0.284827         1.725341
