19
Iteration:  2303charge 0 multiplicity 1
 C        -0.063171        -0.122197        -0.073318
 C         1.503283         0.059897        -0.003941
 C         2.217910         1.154933        -0.833894
 C         3.659566         0.976621        -0.398794
 C         4.214329        -0.367965        -0.979462
 C         3.405195        -1.098638         0.093375
 O         1.955885        -1.209983        -0.230103
 C         3.310742         0.204023         0.966867
 O         1.963684         0.418957         1.325591
 H        -0.420935        -0.936259         0.532054
 H        -0.504119         0.848856         0.111198
 H        -0.309368        -0.437921        -1.070548
 H         2.160589         1.188119        -1.955649
 H         1.908605         2.147751        -0.464428
 H         4.411970         1.836404        -0.276074
 H         3.862510        -0.679481        -1.960901
 H         5.349205        -0.460215        -0.834683
 H         3.579384        -2.104614         0.440770
 H         3.994364         0.402652         1.788204
