19
Iteration:  2961
 C        -0.024647        -0.005704        -0.093902
 C         1.470447         0.137162        -0.024005
 C         2.173548         1.205785        -0.858055
 C         3.695944         0.964781        -0.295906
 C         4.186073        -0.335061        -1.034481
 C         3.415028        -1.080286         0.141399
 O         1.991396        -1.352008        -0.165048
 C         3.347391         0.183457         0.942338
 O         1.918589         0.336341         1.252532
 H        -0.298428        -0.728995         0.641680
 H        -0.466645         1.022567        -0.171547
 H        -0.328639        -0.535307        -1.000086
 H         2.114504         1.158193        -1.938021
 H         1.937674         2.122281        -0.499687
 H         4.356705         1.848178        -0.121396
 H         3.774631        -0.427095        -2.084839
 H         5.206347        -0.561100        -1.048558
 H         3.953014        -1.997004         0.614056
 H         3.745338         0.329969         1.967298
