19
Iteration:  2244
 C        -0.094647         0.067490        -0.005886
 C         1.399844         0.099617        -0.017307
 C         2.185108         1.019363        -0.917073
 C         3.649924         1.001969        -0.397286
 C         4.259144        -0.282691        -0.902941
 C         3.415674        -1.118050         0.020333
 O         2.022328        -1.331663        -0.259138
 C         3.395790         0.195551         0.993632
 O         1.933192         0.386735         1.313169
 H        -0.372115        -0.835857         0.530514
 H        -0.627286         0.795718         0.597369
 H        -0.505589         0.156767        -1.043091
 H         2.094237         0.803053        -1.977918
 H         1.732952         2.052008        -0.626023
 H         4.243162         1.840553        -0.478723
 H         4.495699        -0.587375        -1.973466
 H         5.260384        -0.338554        -0.491491
 H         3.601085        -2.092767         0.476781
 H         3.980115         0.350595         1.922609
