19
Iteration:  4348charge 0 multiplicity 1
 C        -0.055366         0.031105        -0.147085
 C         1.417153        -0.025742        -0.063272
 C         2.200853         1.128564        -0.915253
 C         3.642943         0.976558        -0.390350
 C         4.118421        -0.305168        -1.012272
 C         3.422730        -1.100040         0.191308
 O         2.048687        -1.248142        -0.221904
 C         3.393485         0.172027         1.054883
 O         1.972632         0.363340         1.358974
 H        -0.436430        -0.847166         0.482964
 H        -0.189498         1.040399         0.299010
 H        -0.605073         0.011531        -1.133854
 H         2.254250         1.114941        -2.040080
 H         1.688166         2.077337        -0.643560
 H         4.238657         1.952119        -0.364352
 H         3.830840        -0.664133        -1.887904
 H         5.194108        -0.452499        -1.043753
 H         3.703847        -2.077352         0.681284
 H         4.020810         0.297022         1.930204
