19
Iteration:   654charge 0 multiplicity 1
 C        -0.044018         0.077000        -0.100610
 C         1.449489         0.052042         0.028149
 C         2.168293         1.103669        -0.912267
 C         3.590295         0.931617        -0.389581
 C         4.183307        -0.312344        -0.984636
 C         3.486287        -1.094591         0.205717
 O         2.045469        -1.293896        -0.224899
 C         3.343098         0.186459         1.019036
 O         1.972098         0.377051         1.269700
 H        -0.479891        -0.588460         0.673855
 H        -0.457262         1.157725        -0.070653
 H        -0.247596        -0.358767        -1.050891
 H         1.944355         0.885963        -1.904411
 H         1.623769         2.010563        -0.586470
 H         4.182215         1.776366        -0.549081
 H         3.761002        -0.547903        -1.993647
 H         5.271484        -0.408319        -0.959395
 H         3.787044        -2.142368         0.491256
 H         3.938766         0.383035         1.932233
