19
Iteration:    63charge 0 multiplicity 1
 C        -0.070236         0.002672         0.061400
 C         1.444780         0.043481         0.003207
 C         2.177393         1.085684        -0.939686
 C         3.626490         0.964175        -0.476448
 C         4.227830        -0.368953        -0.961155
 C         3.435835        -1.125149         0.158526
 O         2.061668        -1.350793        -0.257193
 C         3.282191         0.278471         0.985495
 O         1.956430         0.476780         1.284959
 H        -0.333079        -0.542299         0.934820
 H        -0.601915         1.066928         0.022155
 H        -0.407686        -0.555152        -0.798357
 H         1.978119         0.894523        -2.044943
 H         1.717122         2.092642        -0.797988
 H         4.351302         1.842083        -0.442703
 H         4.231921        -0.649560        -2.007906
 H         5.372417        -0.394357        -0.893406
 H         3.781385        -2.004417         0.839048
 H         3.851112         0.493896         1.853223
