19
Iteration:   333charge 0 multiplicity 1
 C        -0.043105         0.040963        -0.016541
 C         1.475577         0.006203        -0.098535
 C         2.184648         1.082527        -0.916668
 C         3.539528         0.973193        -0.460166
 C         4.222000        -0.335324        -0.923678
 C         3.459566        -1.118081         0.111206
 O         1.980266        -1.233916        -0.211880
 C         3.305066         0.287528         1.035697
 O         1.997604         0.283994         1.324996
 H        -0.431492        -0.782556         0.540878
 H        -0.213406         1.038132         0.612705
 H        -0.330407         0.160333        -1.069673
 H         2.034761         0.858607        -2.008423
 H         1.778859         2.089054        -0.689050
 H         4.183789         1.948162        -0.486005
 H         4.267981        -0.565599        -2.012094
 H         5.329904        -0.304151        -0.628493
 H         3.857137        -2.166224         0.353840
 H         3.875737         0.498664         1.887349
