19
Iteration:  3995
 C        -0.063292         0.078862         0.093805
 C         1.374239         0.019117        -0.095727
 C         2.178117         1.055382        -0.951513
 C         3.618807         0.949516        -0.348819
 C         4.262490        -0.321955        -0.908046
 C         3.460409        -1.066839         0.099933
 O         2.064579        -1.203896        -0.351691
 C         3.344104         0.214282         1.015708
 O         1.929666         0.257491         1.300516
 H        -0.430046        -0.736476         0.677180
 H        -0.175061         1.110923         0.433184
 H        -0.680232         0.203197        -0.851052
 H         1.907693         0.723284        -1.931376
 H         1.769268         1.984291        -0.906707
 H         4.216096         1.925783        -0.324620
 H         4.094403        -0.492663        -1.979385
 H         5.363866        -0.454007        -0.535028
 H         3.624115        -1.977788         0.633010
 H         4.026382         0.535044         1.819971
