19
Iteration:   666charge 0 multiplicity 1
 C        -0.091185         0.072412        -0.094722
 C         1.441288        -0.009618        -0.021553
 C         2.128037         1.033252        -0.847346
 C         3.602002         0.966180        -0.379723
 C         4.289739        -0.375311        -1.015084
 C         3.429009        -1.115850         0.125460
 O         2.053878        -1.288265        -0.250153
 C         3.340360         0.273553         0.968919
 O         1.958513         0.401241         1.370799
 H        -0.598876        -0.483608         0.613867
 H        -0.394940         1.226599         0.100580
 H        -0.479533        -0.113029        -1.070648
 H         2.169860         0.852308        -1.873192
 H         1.858892         2.088093        -0.747160
 H         4.049555         1.889869        -0.161956
 H         4.000535        -0.780220        -2.047306
 H         5.373856        -0.289905        -0.986015
 H         3.836269        -1.988467         0.740499
 H         4.037332         0.475325         1.757572
