19
Iteration:  4870charge 0 multiplicity 1
 C        -0.018605        -0.068892        -0.072708
 C         1.423295         0.072438         0.046287
 C         2.207002         1.168934        -0.814755
 C         3.656507         0.972674        -0.417493
 C         4.240378        -0.341003        -0.976784
 C         3.405673        -1.142243         0.103681
 O         2.037678        -1.217612        -0.292930
 C         3.321060         0.198820         1.002196
 O         1.896060         0.389844         1.310894
 H        -0.224292        -0.763807         0.687973
 H        -0.369363         0.948903         0.077331
 H        -0.329062        -0.255016        -1.142211
 H         2.229288         1.047344        -1.884279
 H         1.792229         2.156531        -0.621240
 H         4.365122         1.757921        -0.314624
 H         3.590801        -0.665855        -1.926495
 H         5.329654        -0.635806        -1.077953
 H         3.788459        -2.049074         0.568092
 H         3.783939         0.203242         1.987194
