19
Iteration:  4099
 C        -0.071036         0.042967        -0.070097
 C         1.396038         0.037498        -0.050282
 C         2.139539         1.211965        -0.846273
 C         3.640201         0.953680        -0.471216
 C         4.250240        -0.341430        -0.931093
 C         3.454870        -1.118596         0.142485
 O         2.060697        -1.273607        -0.292214
 C         3.320148         0.172756         1.013854
 O         1.993868         0.325144         1.313739
 H        -0.493341        -0.447361         0.825598
 H        -0.445093         0.991458         0.241395
 H        -0.481347        -0.391390        -0.955739
 H         1.871401         1.100083        -1.949970
 H         1.706109         2.199091        -0.321075
 H         4.189943         1.856392        -0.283058
 H         3.890028        -0.588502        -2.005165
 H         5.318872        -0.379998        -0.808322
 H         3.745761        -2.104287         0.659690
 H         3.991376         0.255637         1.883464
