19
Iteration:  1918charge 0 multiplicity 1
 C        -0.078309        -0.078071         0.058146
 C         1.395614         0.169061         0.010008
 C         2.160840         1.126911        -0.939671
 C         3.570151         0.934802        -0.459248
 C         4.283979        -0.398013        -0.849865
 C         3.435994        -1.126150         0.197564
 O         2.062160        -1.185094        -0.354760
 C         3.331072         0.192539         0.958604
 O         1.955285         0.384713         1.280810
 H        -0.306517        -0.779980         0.844347
 H        -0.863215         0.773264         0.191500
 H        -0.421783        -0.407782        -0.984015
 H         2.028145         0.975885        -1.999256
 H         1.998258         2.189958        -0.688169
 H         4.392818         1.801933        -0.619875
 H         4.181494        -0.769993        -1.934084
 H         5.342165        -0.373510        -0.680495
 H         3.901226        -2.058290         0.650912
 H         3.995683         0.430644         1.779360
