19
Iteration:  1751charge 0 multiplicity 1
 C        -0.012336         0.086612        -0.135207
 C         1.424512         0.024049         0.090200
 C         2.157950         1.116644        -0.910645
 C         3.612685         0.972517        -0.453404
 C         4.205376        -0.393342        -0.994959
 C         3.496388        -1.070387         0.120155
 O         2.034361        -1.310291        -0.177421
 C         3.348614         0.227182         1.061770
 O         1.931984         0.364493         1.298188
 H        -0.551396        -0.332197         0.805873
 H        -0.386451         1.067858        -0.282666
 H        -0.290935        -0.475740        -1.034904
 H         1.915856         0.957365        -1.925116
 H         1.730735         2.033678        -0.545488
 H         4.095692         1.948672        -0.566225
 H         3.965861        -0.687812        -2.000864
 H         5.234533        -0.243544        -0.889145
 H         3.656738        -2.121376         0.411949
 H         4.093832         0.249072         1.850955
