19
Iteration:  2777charge 0 multiplicity 1
 C        -0.037022        -0.064480         0.093246
 C         1.481516         0.106748        -0.067501
 C         2.264134         1.070730        -0.972357
 C         3.619709         0.973425        -0.290526
 C         4.278774        -0.346304        -0.921589
 C         3.335086        -1.112893         0.141204
 O         1.998477        -1.220678        -0.388242
 C         3.274353         0.180380         0.975282
 O         1.936455         0.464110         1.293522
 H        -0.345801        -0.692630         0.918771
 H        -0.637437         0.806272         0.416737
 H        -0.557856        -0.635549        -0.664031
 H         2.253627         0.732410        -2.066288
 H         1.884069         2.193233        -0.860084
 H         4.263474         1.832761        -0.455311
 H         4.249139        -0.608937        -2.044295
 H         5.358646        -0.517893        -0.702011
 H         3.671165        -2.025820         0.772294
 H         4.022323         0.163359         1.786001
