19
Iteration:  3637
 C        -0.058158         0.040929        -0.124524
 C         1.387365        -0.028335        -0.040199
 C         2.146441         1.088632        -0.895895
 C         3.600938         0.975270        -0.472975
 C         4.220535        -0.387548        -0.945131
 C         3.444611        -1.107972         0.156305
 O         2.059233        -1.234923        -0.259672
 C         3.339380         0.228089         1.055812
 O         2.004198         0.377514         1.387489
 H        -0.521431        -0.735991         0.595559
 H        -0.260059         1.092035         0.185023
 H        -0.467002         0.096099        -1.189994
 H         1.997624         0.997532        -1.943098
 H         1.704285         2.005192        -0.782101
 H         4.195111         1.899565        -0.374591
 H         3.912769        -0.701806        -1.966278
 H         5.342696        -0.193628        -0.928996
 H         3.885004        -1.912760         0.700851
 H         3.946549         0.284273         1.946528
