19
Iteration:  3331
 C        -0.037032        -0.052283         0.113758
 C         1.487652         0.107363        -0.058261
 C         2.221518         1.096427        -0.898330
 C         3.624222         0.952273        -0.340149
 C         4.267432        -0.351034        -0.858332
 C         3.393855        -1.124354         0.049373
 O         2.003033        -1.242057        -0.357763
 C         3.239736         0.173683         0.957908
 O         1.936018         0.422251         1.276410
 H        -0.225380        -0.574250         1.069998
 H        -0.583894         0.949621        -0.068033
 H        -0.481280        -0.530449        -0.788544
 H         2.304160         0.944650        -2.037583
 H         1.903877         2.217034        -0.806589
 H         4.262007         1.859140        -0.259659
 H         4.139584        -0.396712        -1.967686
 H         5.343180        -0.446200        -0.609176
 H         3.860319        -2.014852         0.393598
 H         3.801778         0.308936         1.865438
