19
Iteration:  2061charge 0 multiplicity 1
 C        -0.061488        -0.090027         0.072845
 C         1.406571         0.145777         0.036795
 C         2.218303         1.106052        -0.987397
 C         3.623973         0.954880        -0.369384
 C         4.280831        -0.368604        -0.877589
 C         3.420460        -1.163108         0.085728
 O         2.026220        -1.206807        -0.357193
 C         3.271424         0.224411         0.976152
 O         1.974313         0.438443         1.299620
 H        -0.316517        -1.021868         0.567159
 H        -0.515386         0.709249         0.655493
 H        -0.386296         0.177924        -0.951241
 H         2.108591         0.616314        -1.919263
 H         1.718426         2.054543        -0.922373
 H         4.231609         1.934390        -0.372605
 H         4.216584        -0.738650        -1.903368
 H         5.274948        -0.613695        -0.476177
 H         3.584068        -2.202994         0.244292
 H         3.876991         0.498100         1.835784
