19
Iteration:   467
 C        -0.027117         0.006166         0.022735
 C         1.422541         0.007645        -0.042372
 C         2.191401         1.124746        -0.904956
 C         3.622637         1.002158        -0.357497
 C         4.245222        -0.352747        -0.929547
 C         3.361083        -1.122206         0.042134
 O         2.014593        -1.263636        -0.287335
 C         3.342114         0.240571         0.976984
 O         1.976460         0.392631         1.316412
 H        -0.334401        -0.766464         0.850218
 H        -0.330945         0.970191         0.243344
 H        -0.526971        -0.372449        -0.903886
 H         2.118874         0.949333        -1.980268
 H         1.712048         2.066449        -0.648974
 H         4.218464         1.877029        -0.401759
 H         4.111249        -0.564172        -1.999317
 H         5.293430        -0.619032        -0.582130
 H         3.769498        -2.130535         0.461338
 H         3.938390         0.476908         1.888850
