19
Iteration:  3214charge 0 multiplicity 1
 C        -0.030106        -0.042438         0.009856
 C         1.468107         0.087516        -0.032630
 C         2.214639         1.136259        -0.899631
 C         3.610777         0.927762        -0.325009
 C         4.235857        -0.382098        -0.951686
 C         3.382988        -1.093784         0.151800
 O         2.050501        -1.169242        -0.329721
 C         3.318566         0.150492         0.984651
 O         1.944260         0.381787         1.269697
 H        -0.215400        -1.037204         0.429259
 H        -0.428444         0.792444         0.538516
 H        -0.508492         0.148531        -0.926386
 H         2.050131         1.207173        -2.013410
 H         1.649758         2.020632        -0.572299
 H         4.041640         1.967379        -0.242414
 H         3.851095        -0.549778        -2.044923
 H         5.270202        -0.663171        -0.805166
 H         3.699118        -2.131033         0.579272
 H         3.989399         0.267285         1.851764
