19
Iteration:   641charge 0 multiplicity 1
 C         0.037348        -0.054873        -0.105623
 C         1.512166         0.089669        -0.027838
 C         2.157549         1.174867        -0.905908
 C         3.636696         1.044834        -0.429411
 C         4.045587        -0.390001        -0.885870
 C         3.370792        -1.163877         0.096785
 O         2.049424        -1.229236        -0.175594
 C         3.350353         0.195615         1.002605
 O         1.972378         0.354106         1.291520
 H        -0.462328        -0.554684         0.870534
 H        -0.398629         0.934054        -0.112563
 H        -0.266859        -0.590617        -1.036307
 H         2.149252         1.014947        -1.983189
 H         1.811781         2.211786        -0.724733
 H         4.331854         1.854394        -0.550189
 H         3.830023        -0.621423        -1.926731
 H         5.138294        -0.499505        -0.772620
 H         3.956173        -1.966208         0.564841
 H         3.956695         0.290358         1.967415
