19
Iteration:  4449
 C        -0.094195         0.009685        -0.089490
 C         1.451473         0.081385        -0.039843
 C         2.197060         1.138814        -0.851102
 C         3.606087         0.957845        -0.340951
 C         4.201048        -0.389594        -0.965121
 C         3.450009        -1.168256         0.127896
 O         2.038951        -1.203009        -0.274768
 C         3.411120         0.264443         1.011845
 O         1.941353         0.333740         1.289616
 H        -0.323736        -0.562835         0.817687
 H        -0.436120         1.090283         0.000729
 H        -0.449437        -0.443825        -1.117998
 H         1.899207         0.865008        -1.919111
 H         1.589556         1.938953        -0.504870
 H         4.157140         1.905125        -0.354310
 H         3.946445        -0.506163        -1.921007
 H         5.283315        -0.581637        -0.783043
 H         3.573204        -2.220377         0.570629
 H         4.129460         0.518308         1.819386
