19
Iteration:  3845
 C        -0.075238        -0.047378         0.075451
 C         1.417246         0.067174        -0.054815
 C         2.231669         1.142443        -0.918486
 C         3.641394         0.979665        -0.381862
 C         4.283698        -0.362438        -0.893317
 C         3.358915        -1.106991         0.169662
 O         2.069626        -1.207785        -0.399161
 C         3.337727         0.208223         0.950165
 O         1.921676         0.357363         1.319333
 H        -0.490392        -0.699246         0.782241
 H        -0.523374         0.872928         0.491594
 H        -0.648615        -0.260114        -0.867583
 H         2.036369         0.968390        -1.989103
 H         1.595093         2.122239        -0.689458
 H         4.311762         1.814341        -0.380737
 H         4.108314        -0.705911        -1.865319
 H         5.353726        -0.488838        -0.870970
 H         3.699601        -2.056525         0.614599
 H         4.075997         0.298768         1.770721
