19
Iteration:  1861
 C        -0.030661         0.033500        -0.122397
 C         1.478264         0.036219         0.010544
 C         2.099563         1.110466        -0.925444
 C         3.622224         1.026293        -0.361777
 C         4.228541        -0.414163        -1.029712
 C         3.458601        -1.082481         0.167702
 O         2.048256        -1.318992        -0.110340
 C         3.276981         0.228547         0.978308
 O         1.949794         0.374649         1.291249
 H        -0.620617        -0.858440         0.322879
 H        -0.215883         0.971592         0.419042
 H        -0.355218         0.104214        -1.138948
 H         2.307384         0.973405        -1.979595
 H         1.627048         2.140499        -0.839429
 H         4.339279         1.878686        -0.328531
 H         3.893170        -0.471935        -2.112410
 H         5.297742        -0.500174        -1.148885
 H         3.861789        -2.035564         0.636594
 H         4.014239         0.467236         1.762115
