19
Iteration:  1110
 C        -0.076129        -0.029203         0.093010
 C         1.425498         0.142458        -0.021955
 C         2.188167         1.078644        -0.964263
 C         3.613708         0.984194        -0.423858
 C         4.286336        -0.378967        -0.800954
 C         3.394286        -1.158324         0.097095
 O         2.003732        -1.181037        -0.350584
 C         3.319414         0.207057         0.921897
 O         1.966005         0.334787         1.292958
 H        -0.365897        -0.932902         0.564914
 H        -0.660552         0.840368         0.625167
 H        -0.515367        -0.104899        -0.940890
 H         2.054849         0.843454        -1.954537
 H         2.040439         2.188882        -0.798270
 H         4.332005         1.932802        -0.476141
 H         4.533881        -0.613806        -1.880636
 H         5.252337        -0.288464        -0.296217
 H         3.716034        -2.061459         0.552784
 H         3.998906         0.410971         1.793465
