19
Iteration:  2697
 C         0.006130         0.042182        -0.134428
 C         1.501998         0.028403        -0.028235
 C         2.159061         1.093765        -0.912819
 C         3.590110         0.958160        -0.362882
 C         4.166739        -0.270490        -1.035829
 C         3.418797        -1.107148         0.162578
 O         2.034955        -1.303095        -0.112139
 C         3.316870         0.172042         0.999137
 O         1.968020         0.399223         1.318863
 H        -0.389771        -0.675539         0.612108
 H        -0.387909         1.038541        -0.042141
 H        -0.428813        -0.099649        -1.167868
 H         2.096609         0.849320        -2.036545
 H         1.826473         2.179100        -0.756581
 H         4.214703         1.876202        -0.336655
 H         3.755229        -0.667383        -1.974843
 H         5.220595        -0.441649        -0.962488
 H         3.823153        -2.117982         0.355666
 H         4.028386         0.341947         1.846331
