19
Iteration:  4045charge 0 multiplicity 1
 C        -0.075303        -0.063124        -0.063898
 C         1.390553         0.042749         0.002875
 C         2.229431         1.150744        -0.868504
 C         3.633389         0.975117        -0.371888
 C         4.254439        -0.367406        -0.950404
 C         3.415781        -1.136174         0.013280
 O         1.967106        -1.162337        -0.240298
 C         3.394095         0.188816         0.978462
 O         1.985349         0.385828         1.358400
 H        -0.440798        -0.952988         0.567213
 H        -0.612398         0.889548         0.114417
 H        -0.332147        -0.379321        -1.087745
 H         2.133834         0.982780        -2.006856
 H         1.606866         2.156852        -0.604932
 H         4.118068         1.955809        -0.288462
 H         4.095987        -0.574941        -2.053912
 H         5.254801        -0.361934        -0.630197
 H         3.581125        -2.106621         0.557191
 H         4.170004         0.155766         1.752579
