19
Iteration:  1795
 C        -0.042620        -0.094258         0.127352
 C         1.397053         0.123394        -0.044021
 C         2.238503         1.113585        -0.961699
 C         3.674316         0.910866        -0.471008
 C         4.317704        -0.338266        -0.862365
 C         3.357230        -1.141603         0.121943
 O         1.973641        -1.155845        -0.326420
 C         3.312547         0.192134         0.994459
 O         1.939931         0.414505         1.273167
 H        -0.318158        -0.755898         1.039458
 H        -0.512943         0.858527         0.087173
 H        -0.423135        -0.659995        -0.717349
 H         2.140687         0.753201        -1.973796
 H         1.797350         2.112705        -0.865345
 H         4.214910         1.822288        -0.627149
 H         4.435666        -0.542751        -1.924144
 H         5.321450        -0.389153        -0.517494
 H         3.671577        -2.104399         0.591118
 H         3.718018         0.408523         1.983801
