19
Iteration:  3819
 C        -0.009579        -0.060088        -0.055968
 C         1.444065         0.115494        -0.046454
 C         2.158714         1.209404        -0.833695
 C         3.601769         0.897645        -0.390794
 C         4.207360        -0.392563        -0.960270
 C         3.417268        -1.108911         0.160987
 O         2.037773        -1.226737        -0.267089
 C         3.379539         0.232077         1.009299
 O         1.926359         0.365588         1.253823
 H        -0.394663        -0.958443         0.459937
 H        -0.546315         0.679537         0.510868
 H        -0.362635        -0.108716        -1.050703
 H         1.898367         1.206408        -1.920632
 H         1.759017         2.221360        -0.380023
 H         4.368563         1.715561        -0.513439
 H         4.078153        -0.842964        -1.991315
 H         5.328923        -0.411417        -0.847003
 H         3.806600        -2.057937         0.541811
 H         3.969349         0.445642         1.888906
