19
Iteration:  3016
 C        -0.101351        -0.021868        -0.032258
 C         1.444090         0.138477         0.031053
 C         2.132162         1.109024        -0.925415
 C         3.623286         0.997053        -0.425863
 C         4.343065        -0.384702        -0.878996
 C         3.378762        -1.125172         0.099834
 O         2.018441        -1.141083        -0.320996
 C         3.337168         0.168771         0.947974
 O         1.953802         0.315786         1.353849
 H        -0.519152        -0.823613         0.550028
 H        -0.600054         0.831831         0.544923
 H        -0.462608        -0.102485        -1.058401
 H         2.101723         0.784167        -1.962191
 H         1.874849         2.077437        -0.830698
 H         4.397135         1.782716        -0.302724
 H         4.540286        -0.781690        -1.945687
 H         5.336040        -0.367930        -0.468099
 H         3.727932        -2.195596         0.370645
 H         3.880409         0.251822         1.864251
