19
Iteration:  2578
 C        -0.008722         0.031267        -0.146071
 C         1.413754         0.065974         0.055229
 C         2.179205         1.024885        -0.889091
 C         3.600620         1.009697        -0.386088
 C         4.156555        -0.304812        -0.960960
 C         3.370136        -1.141594         0.108000
 O         2.023374        -1.251803        -0.199980
 C         3.435223         0.217534         0.994476
 O         1.990677         0.385048         1.337278
 H        -0.391025        -0.586074         0.623343
 H        -0.476949         0.955749        -0.149137
 H        -0.170083        -0.345375        -1.153211
 H         1.954339         0.740419        -1.948786
 H         1.618351         2.000269        -0.789191
 H         3.956618         2.026163        -0.450321
 H         3.943622        -0.690970        -1.999656
 H         5.219136        -0.429257        -0.739647
 H         3.848261        -2.105955         0.422895
 H         4.234663         0.295149         1.774455
