19
Iteration:   759
 C         0.004531        -0.037894        -0.098325
 C         1.450032         0.129329         0.010157
 C         2.114105         1.182951        -0.964706
 C         3.568435         0.947604        -0.422109
 C         4.207703        -0.432044        -0.911360
 C         3.421345        -1.097920         0.118419
 O         2.075485        -1.232173        -0.185291
 C         3.321880         0.174272         0.951608
 O         1.989087         0.394685         1.332478
 H        -0.502933        -0.845720         0.589379
 H        -0.393930         0.877227         0.259510
 H        -0.291532        -0.205078        -1.159385
 H         1.884081         1.149037        -2.111225
 H         1.504139         2.047495        -0.576066
 H         4.386414         1.808253        -0.275004
 H         4.045751        -0.762494        -1.923967
 H         5.304499        -0.527693        -0.681202
 H         3.746180        -2.038484         0.537164
 H         3.952285         0.329770         1.868568
