19
Iteration:  2027
 C        -0.091237        -0.067308        -0.092307
 C         1.425978         0.008315        -0.065315
 C         2.199655         1.168330        -0.853447
 C         3.610835         0.977349        -0.452442
 C         4.204893        -0.414820        -0.956742
 C         3.420711        -1.118336         0.160352
 O         2.026870        -1.195732        -0.175293
 C         3.328204         0.237911         1.012407
 O         1.999118         0.402823         1.294923
 H        -0.376965        -0.999053         0.291542
 H        -0.299756         0.878673         0.455887
 H        -0.331387        -0.106512        -1.202858
 H         2.092097         1.270565        -1.927699
 H         1.781587         2.176889        -0.496132
 H         4.392472         1.767347        -0.329246
 H         3.772681        -0.724031        -1.982562
 H         5.289652        -0.542004        -0.989534
 H         3.935280        -2.072828         0.397909
 H         3.860613         0.367655         1.927792
