19
Iteration:   311charge 0 multiplicity 1
 C        -0.090570         0.101008         0.125363
 C         1.418938         0.039378        -0.016990
 C         2.149665         1.051630        -0.949886
 C         3.614761         1.010651        -0.414618
 C         4.330235        -0.331432        -0.864877
 C         3.439309        -1.113798         0.145343
 O         2.109278        -1.338081        -0.331808
 C         3.323290         0.203750         0.925943
 O         1.878385         0.363375         1.242257
 H        -0.491854        -0.627141         0.779451
 H        -0.249769         1.151211         0.659466
 H        -0.560493         0.220651        -0.847185
 H         2.049089         0.682599        -2.007437
 H         1.707963         2.067243        -0.977890
 H         3.932497         2.085075        -0.217487
 H         4.073722        -0.420177        -1.938268
 H         5.440692        -0.518334        -0.778668
 H         3.856689        -2.043417         0.655232
 H         3.934271         0.282013         1.781650
