19
Iteration:  4071
 C         0.018707        -0.074605        -0.102093
 C         1.407703         0.130628         0.045805
 C         2.224898         1.192051        -0.813063
 C         3.667993         0.911497        -0.346049
 C         4.115507        -0.377992        -1.046705
 C         3.353581        -1.121619         0.077668
 O         2.046596        -1.242336        -0.286047
 C         3.342870         0.245140         1.039399
 O         1.990982         0.386395         1.309961
 H        -0.321957        -0.839259         0.624438
 H        -0.652429         0.823067         0.039970
 H        -0.126976        -0.599332        -1.127773
 H         2.120503         0.892646        -1.849040
 H         1.729543         2.096978        -0.644863
 H         4.169654         1.933340        -0.201236
 H         3.742807        -0.448233        -2.042321
 H         5.200633        -0.471370        -0.859410
 H         3.679328        -2.000361         0.601855
 H         4.007266         0.275396         1.901978
