19
Iteration:  3924
 C         0.015297        -0.043366        -0.099913
 C         1.468780         0.070767         0.039539
 C         2.139825         1.249532        -0.865756
 C         3.559540         0.910571        -0.366370
 C         4.148592        -0.405470        -0.998015
 C         3.476002        -1.118832         0.210689
 O         2.084897        -1.227257        -0.324163
 C         3.349583         0.199462         0.940239
 O         1.935053         0.375216         1.358876
 H        -0.464486        -0.734348         0.646397
 H        -0.488266         0.934526        -0.059639
 H        -0.489982        -0.351017        -0.980349
 H         2.036014         1.204838        -1.964619
 H         1.754107         2.291310        -0.577127
 H         4.282715         1.665960        -0.352174
 H         3.712137        -0.620193        -1.970143
 H         5.182753        -0.496515        -0.960179
 H         3.965197        -2.046331         0.622348
 H         4.023877         0.258396         1.802690
