19
Iteration:  2901
 C        -0.106736        -0.010004         0.104636
 C         1.350786         0.122019         0.009719
 C         2.202797         1.147301        -0.897130
 C         3.646237         0.960253        -0.448469
 C         4.307041        -0.381167        -0.833025
 C         3.433479        -1.168204         0.131429
 O         2.081788        -1.241023        -0.405896
 C         3.335997         0.194661         0.900991
 O         1.905968         0.361104         1.271280
 H        -0.482747        -0.533120         0.975549
 H        -0.542842         0.959928         0.332722
 H        -0.451776        -0.357469        -0.877390
 H         2.029605         0.939888        -1.962019
 H         1.979271         2.271226        -0.737841
 H         4.141569         1.928596        -0.400572
 H         4.380885        -0.633481        -1.874579
 H         5.388672        -0.378224        -0.341052
 H         3.757304        -2.039311         0.606614
 H         3.682370         0.364955         1.889780
