19
Iteration:  4785charge 0 multiplicity 1
 C         0.002783        -0.005106         0.049953
 C         1.455604         0.027475         0.018545
 C         2.201895         1.194552        -0.930613
 C         3.647474         0.930652        -0.387629
 C         4.209289        -0.345285        -0.953114
 C         3.425036        -1.102658         0.083760
 O         2.054305        -1.253621        -0.310993
 C         3.298833         0.207864         1.018113
 O         1.884059         0.371783         1.273094
 H        -0.550993        -0.707129         0.628267
 H        -0.504352         0.903559         0.410423
 H        -0.123742        -0.307384        -1.043993
 H         2.264293         1.025929        -2.079117
 H         1.733080         2.109145        -0.599036
 H         4.272106         1.823552        -0.223946
 H         3.962272        -0.531934        -1.999720
 H         5.163702        -0.539245        -0.755188
 H         3.758848        -2.033839         0.582579
 H         3.841330         0.302753         1.979564
