19
Iteration:  4321charge 0 multiplicity 1
 C         0.001404        -0.036302        -0.105004
 C         1.398418         0.127177         0.054001
 C         2.192621         1.107024        -0.862658
 C         3.673814         0.918495        -0.366928
 C         4.209209        -0.284154        -1.017599
 C         3.389088        -1.146478         0.121044
 O         1.954909        -1.291324        -0.233877
 C         3.386280         0.196939         1.023091
 O         1.959654         0.418586         1.268308
 H        -0.251941        -0.872049         0.564035
 H        -0.581404         0.900323         0.136711
 H        -0.270909        -0.346910        -1.093825
 H         2.082511         1.102824        -1.946508
 H         1.812217         2.159845        -0.549768
 H         4.126683         1.863518        -0.256292
 H         4.209689        -0.583232        -2.189397
 H         5.285662        -0.476839        -0.787677
 H         3.746476        -2.066318         0.548611
 H         3.917155         0.515228         1.958190
