19
Iteration:  3770
 C        -0.045049         0.055415        -0.099602
 C         1.412004         0.049408         0.010051
 C         2.206084         1.068755        -0.922509
 C         3.601478         1.016322        -0.409411
 C         4.232027        -0.281698        -0.953312
 C         3.416611        -1.147759         0.094636
 O         2.054839        -1.231308        -0.186106
 C         3.327957         0.165736         0.969731
 O         1.955509         0.336023         1.348036
 H        -0.524265        -0.754174         0.503756
 H        -0.590390         0.933706         0.438981
 H        -0.406466        -0.158378        -1.198482
 H         2.030575         0.612703        -1.918381
 H         1.781976         2.076249        -0.734835
 H         4.162093         1.942811        -0.407521
 H         4.177789        -0.459571        -2.114648
 H         5.336012        -0.395829        -0.780212
 H         3.830345        -2.073130         0.559465
 H         3.946358         0.311822         1.875342
