19
Iteration:  4440charge 0 multiplicity 1
 C        -0.065693        -0.010283        -0.018298
 C         1.471509         0.066042        -0.039067
 C         2.210333         1.098027        -0.906366
 C         3.653026         0.978372        -0.351299
 C         4.212745        -0.367545        -0.932720
 C         3.403128        -1.098407         0.173203
 O         2.013779        -1.229460        -0.344392
 C         3.336012         0.206802         1.014723
 O         1.943854         0.365880         1.319453
 H        -0.449855        -0.653938         0.774433
 H        -0.540143         0.985952         0.044425
 H        -0.604796        -0.427828        -0.854095
 H         2.304961         1.033705        -1.946595
 H         1.887408         2.088908        -0.703958
 H         4.233540         1.872313        -0.431848
 H         3.870638        -0.669246        -1.916818
 H         5.279417        -0.414253        -1.039023
 H         3.796618        -2.077892         0.362691
 H         3.969491         0.428809         1.914408
