19
Iteration:  4462charge 0 multiplicity 1
 C        -0.010774         0.052234        -0.156685
 C         1.466074         0.051862         0.046774
 C         2.056370         1.169373        -0.802177
 C         3.602872         0.934490        -0.412287
 C         4.226076        -0.374466        -0.954061
 C         3.391310        -1.136104         0.099753
 O         2.050438        -1.248435        -0.212260
 C         3.327946         0.200025         0.949799
 O         2.011485         0.350200         1.319000
 H        -0.611994        -0.588785         0.529894
 H        -0.483704         1.060933        -0.176386
 H        -0.227876        -0.434649        -1.111606
 H         1.961095         1.100178        -1.872090
 H         1.871277         2.176841        -0.573396
 H         4.251272         1.781865        -0.409936
 H         4.193276        -0.674942        -1.977674
 H         5.275281        -0.347491        -0.709287
 H         3.863625        -2.015520         0.539663
 H         3.920281         0.367362         1.888798
