19
Iteration:  4425charge 0 multiplicity 1
 C        -0.039802        -0.034908         0.092178
 C         1.418460         0.059791        -0.010468
 C         2.276611         1.181120        -0.949345
 C         3.660579         0.938722        -0.359231
 C         4.234813        -0.332052        -0.928293
 C         3.379634        -1.089024         0.085855
 O         2.046909        -1.249506        -0.345843
 C         3.251334         0.161408         1.000062
 O         1.923533         0.419258         1.263320
 H        -0.179519        -0.765442         0.912709
 H        -0.394890         1.011675         0.249642
 H        -0.300523        -0.452821        -0.984964
 H         1.995694         0.661390        -1.946835
 H         1.741332         2.160170        -0.846245
 H         4.333312         1.849771        -0.242227
 H         4.106966        -0.485068        -1.973536
 H         5.275131        -0.566168        -0.613497
 H         3.586984        -1.936498         0.816388
 H         3.849303         0.016859         1.858478
