19
Iteration:  3123
 C        -0.050914        -0.077291        -0.135033
 C         1.488239         0.101747        -0.040446
 C         2.201173         1.184992        -0.761674
 C         3.634705         0.925315        -0.369038
 C         4.179646        -0.368480        -0.996060
 C         3.426848        -1.145342         0.158114
 O         1.981701        -1.170989        -0.295724
 C         3.367807         0.150014         0.995821
 O         1.944496         0.386245         1.341546
 H        -0.234258        -0.733848         0.646678
 H        -0.703486         0.819563        -0.237571
 H        -0.385956        -0.597570        -1.016089
 H         2.034114         1.174757        -1.877051
 H         1.956139         2.304067        -0.439354
 H         4.472651         1.602071        -0.297085
 H         3.806599        -0.445558        -2.077620
 H         5.250710        -0.460158        -0.892323
 H         3.683135        -2.082661         0.591049
 H         4.051512         0.550542         1.734251
