19
Iteration:  1855charge 0 multiplicity 1
 C        -0.018014         0.018234        -0.092732
 C         1.442949         0.072508        -0.051161
 C         2.130294         1.081712        -0.920617
 C         3.629227         0.970427        -0.379630
 C         4.203606        -0.444024        -1.000756
 C         3.507397        -1.069215         0.139893
 O         2.051842        -1.284883        -0.149206
 C         3.286011         0.245951         0.964258
 O         1.927427         0.366818         1.333531
 H        -0.414666        -0.777209         0.453524
 H        -0.265987         0.942161         0.520364
 H        -0.315413         0.159630        -1.178281
 H         2.316995         1.090997        -2.023002
 H         1.629458         2.006126        -0.714773
 H         4.064060         2.039486        -0.435654
 H         3.739390        -0.490444        -1.975577
 H         5.318257        -0.510240        -0.848946
 H         3.873009        -1.956148         0.631735
 H         3.930504         0.496239         1.800001
