19
Iteration:  2745
 C        -0.094928        -0.068609         0.042673
 C         1.446238         0.110325        -0.022008
 C         2.185121         1.169988        -0.920410
 C         3.595373         0.914631        -0.404753
 C         4.357233        -0.414818        -0.885269
 C         3.382359        -1.128974         0.104498
 O         2.006215        -1.157160        -0.314021
 C         3.341726         0.197869         0.924962
 O         1.962720         0.404637         1.311915
 H        -0.332613        -0.637477         0.938186
 H        -0.708024         0.833714        -0.181937
 H        -0.480334        -0.639419        -0.802664
 H         1.885955         0.972018        -1.977922
 H         1.743915         2.150634        -0.536867
 H         4.236719         1.770453        -0.625726
 H         4.482545        -0.717303        -1.976471
 H         5.291062        -0.411699        -0.252499
 H         3.607695        -2.111617         0.631165
 H         3.935560         0.297764         1.823307
