19
Iteration:  2114
 C        -0.041814         0.071260        -0.041832
 C         1.438861        -0.007109        -0.013000
 C         2.168164         1.116652        -0.930225
 C         3.586446         0.936317        -0.403500
 C         4.211029        -0.317024        -0.951272
 C         3.447337        -1.106372         0.131961
 O         2.082074        -1.266760        -0.262798
 C         3.353348         0.207569         1.047545
 O         1.941076         0.371661         1.298161
 H        -0.486271        -0.462209         0.758536
 H        -0.237365         1.142316         0.075554
 H        -0.558042        -0.254368        -0.977627
 H         2.066023         1.001877        -2.020035
 H         1.538827         2.029904        -0.589143
 H         4.219810         1.806504        -0.487197
 H         3.970755        -0.557260        -2.039694
 H         5.260265        -0.408062        -0.639495
 H         3.671759        -2.144492         0.427292
 H         3.948954         0.175569         1.935790
