19
Iteration:  4909charge 0 multiplicity 1
 C        -0.035748         0.000450        -0.077292
 C         1.481136         0.032526         0.025440
 C         2.126890         1.174586        -0.831588
 C         3.649188         1.028595        -0.382777
 C         4.274976        -0.360948        -0.868163
 C         3.395633        -1.163052         0.111210
 O         1.983561        -1.242360        -0.289050
 C         3.343512         0.162627         0.915027
 O         1.971347         0.383266         1.327275
 H        -0.573621        -0.944390         0.362709
 H        -0.388014         1.074669         0.182456
 H        -0.274317        -0.251558        -1.119938
 H         1.853784         0.842617        -1.895268
 H         1.546155         2.154476        -0.721574
 H         4.228391         2.027415        -0.578025
 H         4.099596        -0.493807        -1.877820
 H         5.399413        -0.318648        -0.778198
 H         3.575470        -2.170606         0.531775
 H         4.150558         0.153987         1.670640
