19
Iteration:  1444charge 0 multiplicity 1
 C        -0.077804        -0.129907        -0.113288
 C         1.467826         0.095661         0.029250
 C         2.188280         1.157992        -0.855935
 C         3.707239         0.950984        -0.383482
 C         4.198900        -0.416812        -0.987132
 C         3.369877        -1.121149         0.112999
 O         2.005022        -1.194018        -0.294841
 C         3.335627         0.255464         1.013271
 O         1.971480         0.401884         1.359055
 H        -0.225503        -1.014763         0.515480
 H        -0.553791         0.829608         0.342718
 H        -0.452523        -0.259803        -1.151230
 H         2.050737         1.195989        -1.971069
 H         2.012354         2.116836        -0.458660
 H         4.356351         1.811098        -0.582718
 H         3.956765        -0.579245        -2.041761
 H         5.355534        -0.461527        -0.886797
 H         3.417393        -2.196846         0.585272
 H         3.901220         0.553624         1.920690
