19
Iteration:  4359charge 0 multiplicity 1
 C        -0.058706         0.069113        -0.099162
 C         1.521528         0.086036        -0.044519
 C         2.153103         1.105548        -0.884896
 C         3.573911         0.924263        -0.375686
 C         4.192552        -0.388891        -0.996678
 C         3.475322        -1.097228         0.193491
 O         2.032970        -1.252523        -0.269152
 C         3.307779         0.222101         1.044020
 O         1.967224         0.322862         1.325118
 H        -0.491597        -0.790329         0.514469
 H        -0.488676         0.982201         0.409257
 H        -0.249986         0.025360        -1.219447
 H         1.958593         0.847361        -1.974307
 H         1.802586         2.124869        -0.603739
 H         4.221178         1.863620        -0.494537
 H         3.824231        -0.501901        -1.909097
 H         5.268179        -0.307448        -0.912803
 H         3.939481        -2.081155         0.483810
 H         3.949886         0.481692         1.860367
