19
Iteration:  2641
 C        -0.039662        -0.060340         0.107465
 C         1.485143         0.144348         0.017706
 C         2.108177         1.190505        -1.006058
 C         3.539605         0.924499        -0.434239
 C         4.349716        -0.395468        -0.908833
 C         3.363316        -1.159594         0.267142
 O         2.096957        -1.209509        -0.405266
 C         3.339710         0.207220         0.942299
 O         1.906625         0.398175         1.292682
 H        -0.313116        -1.013061         0.584328
 H        -0.430807         0.743326         0.801107
 H        -0.432517        -0.009880        -0.961687
 H         2.010476         0.920859        -2.115459
 H         1.921957         2.295028        -0.902327
 H         4.180096         1.877963        -0.516261
 H         4.261412        -0.979277        -1.786234
 H         5.382919        -0.449991        -0.547779
 H         3.481772        -2.162016         0.617137
 H         3.850086         0.374462         1.882139
