19
Iteration:    51
 C        -0.159344        -0.093216         0.096975
 C         1.380478         0.091829        -0.039540
 C         2.161395         1.074179        -0.946948
 C         3.596467         0.855197        -0.387102
 C         4.332653        -0.405146        -0.931829
 C         3.472483        -1.126400         0.161512
 O         2.097843        -1.245718        -0.293239
 C         3.352531         0.231868         0.912885
 O         1.928360         0.578530         1.256662
 H        -0.355341        -0.480063         1.071612
 H        -0.580266         1.032624         0.177399
 H        -0.701550        -0.649755        -0.640393
 H         2.124409         0.940947        -2.073152
 H         1.880049         2.081175        -0.560191
 H         4.069478         1.901611        -0.380450
 H         3.921267        -0.678313        -1.903701
 H         5.416572        -0.394155        -0.576010
 H         3.815609        -2.237729         0.472638
 H         4.074278         0.448589         1.685058
