19
Iteration:  2627
 C        -0.076072        -0.033057         0.139244
 C         1.384144         0.090861        -0.050941
 C         2.186960         1.120551        -0.911495
 C         3.649415         0.916294        -0.426673
 C         4.271224        -0.453408        -0.817125
 C         3.401668        -1.094424         0.149054
 O         2.091649        -1.217214        -0.414862
 C         3.273239         0.271675         0.962554
 O         1.955664         0.388008         1.223778
 H        -0.213497        -1.019064         0.671615
 H        -0.502867         0.872554         0.734572
 H        -0.681217         0.033652        -0.803339
 H         2.014603         0.792124        -1.946604
 H         1.679911         2.048893        -0.775311
 H         4.281908         1.835985        -0.315839
 H         4.163572        -0.606437        -1.871468
 H         5.360489        -0.356184        -0.574021
 H         3.756442        -1.864897         0.793799
 H         4.019231         0.533898         1.682965
