19
Iteration:    41
 C        -0.153146        -0.153498         0.173447
 C         1.417507         0.077893        -0.065142
 C         2.108232         1.067363        -0.930687
 C         3.604327         0.872442        -0.417018
 C         4.350331        -0.428321        -0.828610
 C         3.387017        -1.101321         0.134936
 O         2.054697        -1.079745        -0.314500
 C         3.381951         0.186918         0.968289
 O         1.967805         0.535590         1.179717
 H        -0.312395        -0.637782         1.095278
 H        -0.692407         0.940572         0.110521
 H        -0.580449        -0.725022        -0.624817
 H         2.050256         0.847876        -2.056555
 H         1.859390         2.158001        -0.851841
 H         4.186305         1.858447        -0.549614
 H         4.339856        -0.876558        -1.838045
 H         5.502279        -0.539602        -0.750222
 H         3.822525        -2.126936         0.494904
 H         4.029822         0.386054         1.785119
