19
Iteration:    50
 C        -0.162980        -0.097646         0.101854
 C         1.381941         0.093013        -0.044587
 C         2.155535         1.073231        -0.946154
 C         3.594845         0.851813        -0.382035
 C         4.341065        -0.407664        -0.922739
 C         3.465742        -1.123749         0.160317
 O         2.096962        -1.230502        -0.294351
 C         3.357825         0.226162         0.909971
 O         1.928746         0.579486         1.249624
 H        -0.364448        -0.492591         1.094453
 H        -0.571306         1.003098         0.177821
 H        -0.712463        -0.661859        -0.639736
 H         2.130144         0.935506        -2.055334
 H         1.896603         2.082189        -0.566925
 H         4.053576         1.890191        -0.398632
 H         3.917995        -0.700686        -1.898835
 H         5.412937        -0.402320        -0.579357
 H         3.840236        -2.237989         0.445730
 H         4.101157         0.449421         1.695780
