19
Iteration:  2632
 C        -0.034601        -0.027436         0.148454
 C         1.361244         0.107304        -0.025331
 C         2.181055         1.180479        -0.956481
 C         3.617475         0.904836        -0.421118
 C         4.305897        -0.426445        -0.852062
 C         3.360300        -1.120488         0.192839
 O         2.113376        -1.221172        -0.420910
 C         3.299354         0.257427         0.958791
 O         1.936795         0.385948         1.234312
 H        -0.298470        -0.997171         0.523563
 H        -0.397355         0.759576         0.730245
 H        -0.553427        -0.086440        -0.810067
 H         1.964678         0.683257        -1.938585
 H         1.642440         2.171550        -0.746914
 H         4.186310         1.847612        -0.342255
 H         4.185749        -0.847446        -1.907152
 H         5.339665        -0.381876        -0.548236
 H         3.708518        -2.009193         0.817908
 H         4.053382         0.544764         1.740998
