19
Iteration:  1842
 C        -0.048031         0.025439        -0.036778
 C         1.486239         0.013910        -0.040858
 C         2.196153         1.074270        -0.911463
 C         3.584287         0.924520        -0.443530
 C         4.195146        -0.342319        -0.928047
 C         3.397275        -1.085290         0.195493
 O         2.063945        -1.239451        -0.272869
 C         3.354457         0.276062         1.004326
 O         1.933657         0.393336         1.298925
 H        -0.338204        -0.931236         0.423602
 H        -0.522805         0.927681         0.488018
 H        -0.559638        -0.094773        -1.030264
 H         1.885700         0.858582        -1.873780
 H         1.909366         2.051093        -0.584210
 H         4.306440         1.864114        -0.522206
 H         4.057417        -0.858877        -1.903491
 H         5.249985        -0.446421        -0.849959
 H         3.786313        -2.073231         0.567113
 H         3.999981         0.430481         1.883273
