19
Iteration:  3204charge 0 multiplicity 1
 C        -0.078437         0.012106         0.010214
 C         1.429736         0.129906        -0.017454
 C         2.171313         1.131988        -0.893247
 C         3.598745         0.989225        -0.354394
 C         4.241450        -0.352485        -0.886910
 C         3.364625        -1.152918         0.096542
 O         2.054633        -1.247781        -0.386345
 C         3.328013         0.220063         1.002063
 O         1.989628         0.317579         1.304921
 H        -0.434439        -0.915594         0.546020
 H        -0.409865         0.791327         0.678542
 H        -0.484155         0.004439        -1.004645
 H         2.070398         0.791099        -1.967976
 H         2.015066         2.165618        -0.754528
 H         4.344588         1.820673        -0.443547
 H         4.206742        -0.570644        -2.042721
 H         5.343460        -0.400794        -0.645542
 H         3.616251        -2.113208         0.715201
 H         4.077626         0.401398         1.821174
