19
Iteration:  2785
 C        -0.082172        -0.003258         0.075331
 C         1.402533         0.051742        -0.079942
 C         2.228778         1.056238        -0.940177
 C         3.686967         0.929036        -0.364205
 C         4.258490        -0.337546        -0.935015
 C         3.409146        -1.057450         0.166539
 O         2.022723        -1.207078        -0.320620
 C         3.235564         0.183715         0.970678
 O         1.926579         0.401869         1.293110
 H        -0.156185        -0.767595         0.918223
 H        -0.449627         0.938915         0.388994
 H        -0.365470        -0.399814        -0.925761
 H         2.453218         0.888086        -2.003570
 H         2.021331         2.156391        -0.924472
 H         4.212872         1.862928        -0.252531
 H         4.065271        -0.642271        -1.996659
 H         5.272476        -0.369357        -0.741033
 H         3.713063        -2.039261         0.622496
 H         4.086743         0.214095         1.718418
