19
Iteration:   546
 C        -0.174140         0.074602         0.000627
 C         1.376824         0.065133        -0.030712
 C         2.163401         1.077007        -0.946612
 C         3.598097         0.892968        -0.309602
 C         4.274628        -0.296173        -0.959337
 C         3.527809        -1.164178         0.048374
 O         2.072228        -1.333781        -0.246317
 C         3.352504         0.273247         0.989101
 O         1.951408         0.422189         1.319603
 H        -0.655343        -0.646941         0.572445
 H        -0.468676         1.024731         0.627873
 H        -0.425160         0.118234        -0.997197
 H         2.012118         0.752014        -1.959983
 H         1.816583         2.140767        -0.934110
 H         4.145433         1.813313        -0.394986
 H         4.268056        -0.596511        -2.057233
 H         5.320350        -0.382052        -0.622220
 H         3.940670        -2.259909         0.221760
 H         3.960220         0.373944         1.955723
