19
Iteration:  1788charge 0 multiplicity 1
 C        -0.078010        -0.056001         0.127920
 C         1.484993         0.089401        -0.038141
 C         2.195005         1.119403        -0.967474
 C         3.641412         1.008116        -0.377410
 C         4.299159        -0.363940        -0.892806
 C         3.370160        -1.139517         0.140431
 O         1.983396        -1.233536        -0.340581
 C         3.317667         0.243367         0.980373
 O         1.929467         0.414915         1.252704
 H        -0.408902        -0.638270         0.998025
 H        -0.599244         0.953402         0.053041
 H        -0.318468        -0.717861        -0.729775
 H         2.108603         0.762387        -1.987687
 H         1.990327         2.182541        -0.941359
 H         4.348312         1.936313        -0.593506
 H         4.215028        -0.769912        -1.955094
 H         5.340741        -0.646292        -0.558776
 H         3.760980        -2.070271         0.613363
 H         3.909429         0.129295         1.914568
