19
Iteration:  1669
 C        -0.125585        -0.007298         0.138996
 C         1.407575         0.027725        -0.112218
 C         2.174389         1.098168        -0.951921
 C         3.677011         0.972898        -0.412030
 C         4.283440        -0.423391        -0.837053
 C         3.434493        -1.077277         0.176064
 O         2.000355        -1.194920        -0.371397
 C         3.299397         0.216541         1.009462
 O         1.997310         0.400843         1.235439
 H        -0.348500        -0.962323         0.634529
 H        -0.263382         0.822324         0.854344
 H        -0.537957        -0.118509        -0.839656
 H         1.938289         0.947300        -2.111706
 H         1.712183         2.174898        -0.826682
 H         4.196477         1.937597        -0.575245
 H         4.298648        -0.643202        -1.984219
 H         5.377486        -0.507538        -0.440385
 H         3.624706        -2.068041         0.523123
 H         3.952060         0.262961         1.884244
