19
Iteration:  4908charge 0 multiplicity 1
 C        -0.034220        -0.006501        -0.084679
 C         1.486752         0.024924         0.016342
 C         2.126377         1.180880        -0.829014
 C         3.638796         1.029688        -0.382536
 C         4.279945        -0.364085        -0.862671
 C         3.394495        -1.162424         0.111642
 O         1.979817        -1.236515        -0.283616
 C         3.342879         0.166050         0.914021
 O         1.977700         0.381451         1.328670
 H        -0.608927        -0.921120         0.374027
 H        -0.412667         1.062322         0.194015
 H        -0.291531        -0.249063        -1.102843
 H         1.886549         0.842639        -1.913832
 H         1.583227         2.159163        -0.704477
 H         4.254889         2.011854        -0.581678
 H         4.069579        -0.480817        -1.880428
 H         5.359659        -0.318449        -0.806098
 H         3.577810        -2.171010         0.534708
 H         4.164130         0.149174         1.659258
