19
Iteration:  2551
 C        -0.093771        -0.021380        -0.147905
 C         1.388759         0.041171         0.049182
 C         2.163756         1.193616        -0.823350
 C         3.634477         0.919732        -0.434158
 C         4.182904        -0.420230        -1.014150
 C         3.489303        -1.111736         0.187069
 O         2.091178        -1.239260        -0.245185
 C         3.360877         0.266624         0.934468
 O         1.938980         0.363553         1.373823
 H        -0.484099        -0.468805         0.836243
 H        -0.532378         1.066235        -0.249886
 H        -0.255934        -0.539575        -1.138036
 H         1.822215         1.173038        -1.881823
 H         1.818591         2.189370        -0.516146
 H         4.190735         1.925126        -0.481835
 H         3.825924        -0.866671        -1.930800
 H         5.304880        -0.480179        -0.964513
 H         3.923348        -1.992342         0.639345
 H         4.111864         0.414921         1.705667
