19
Iteration:  2105
 C        -0.097255         0.111976         0.034530
 C         1.452388        -0.050400        -0.020376
 C         2.140745         1.103915        -0.936172
 C         3.588504         0.990429        -0.441163
 C         4.245701        -0.370276        -0.887107
 C         3.409614        -1.142013         0.097127
 O         2.075407        -1.286192        -0.324707
 C         3.365001         0.230247         1.030357
 O         1.921625         0.359234         1.286288
 H        -0.424223        -0.496428         0.852697
 H        -0.318719         1.129321         0.191335
 H        -0.285084        -0.078899        -0.998265
 H         1.970609         0.894166        -1.966527
 H         1.830254         2.124451        -0.605276
 H         4.276676         1.910166        -0.281086
 H         4.293707        -0.493816        -1.958054
 H         5.313905        -0.398530        -0.601124
 H         3.922158        -1.912506         0.567344
 H         3.929173         0.484253         1.967054
