19
Iteration:  2906
 C        -0.130619         0.004046         0.110131
 C         1.433724         0.136285         0.031980
 C         2.178236         1.131867        -0.914635
 C         3.603653         0.964976        -0.465952
 C         4.363377        -0.352989        -0.811541
 C         3.384829        -1.177369         0.156944
 O         2.082583        -1.224695        -0.399724
 C         3.323568         0.189146         0.860823
 O         1.916910         0.322409         1.300003
 H        -0.579771        -0.544500         0.968866
 H        -0.569046         1.041682         0.108250
 H        -0.385183        -0.286225        -0.917219
 H         2.105781         0.905657        -1.982999
 H         1.992531         2.169077        -0.802875
 H         4.145645         1.925530        -0.463059
 H         4.339144        -0.535412        -1.930345
 H         5.308351        -0.337444        -0.420300
 H         3.755647        -2.192514         0.589502
 H         3.735817         0.361543         1.912269
