19
Iteration:   266
 C         0.061472        -0.125346        -0.023890
 C         1.471575         0.148187         0.077915
 C         2.175045         1.211143        -0.932760
 C         3.635360         0.965243        -0.478046
 C         4.279014        -0.406027        -0.925482
 C         3.371684        -1.129204         0.103957
 O         1.974411        -1.220896        -0.185185
 C         3.250147         0.222106         0.910233
 O         1.951291         0.357730         1.313020
 H        -0.195288        -0.760609         0.747561
 H        -0.719300         0.789153         0.026486
 H        -0.139768        -0.484715        -1.003910
 H         1.891991         1.132162        -1.999802
 H         1.789650         2.246377        -0.720249
 H         4.329455         1.908164        -0.535166
 H         4.154871        -0.836816        -1.951127
 H         5.361329        -0.417011        -0.676088
 H         3.598291        -2.079685         0.612242
 H         3.906003         0.506915         1.760150
