19
Iteration:  1698
 C        -0.031048        -0.069241         0.015460
 C         1.433194         0.122489         0.015503
 C         2.178486         1.180963        -0.929693
 C         3.708093         0.930890        -0.382244
 C         4.202625        -0.419493        -0.958616
 C         3.398444        -1.139970         0.124257
 O         2.077026        -1.243417        -0.273909
 C         3.260741         0.220835         0.994344
 O         1.923973         0.468366         1.283381
 H        -0.296467        -1.058941         0.570262
 H        -0.504434         0.778981         0.495777
 H        -0.397429        -0.262118        -0.999003
 H         2.004799         0.853010        -1.874838
 H         1.808789         2.169189        -0.856701
 H         4.289355         1.943158        -0.491313
 H         4.089678        -0.614216        -2.068903
 H         5.248816        -0.600325        -0.741010
 H         3.649635        -2.144831         0.576522
 H         4.006548         0.251876         1.775470
