19
Iteration:  4658charge 0 multiplicity 1
 C        -0.112961        -0.040168         0.004344
 C         1.354602         0.076719         0.057963
 C         2.201228         1.149152        -0.915962
 C         3.622438         0.966689        -0.383462
 C         4.306363        -0.345307        -0.891329
 C         3.391094        -1.124201         0.109531
 O         2.051263        -1.183706        -0.374211
 C         3.316068         0.186262         0.916487
 O         2.008561         0.357580         1.367740
 H        -0.492874        -0.683013         0.818465
 H        -0.671742         0.895675        -0.006954
 H        -0.513399        -0.433064        -0.899183
 H         2.083362         0.748317        -1.921676
 H         1.806906         2.144888        -0.975732
 H         4.319935         1.759183        -0.364363
 H         4.295091        -0.543288        -1.920920
 H         5.345320        -0.465225        -0.403201
 H         3.588186        -2.156957         0.386092
 H         4.059186         0.351530         1.705597
