19
Iteration:  4989charge 0 multiplicity 1
 C        -0.176162        -0.046532        -0.070768
 C         1.459519         0.049101         0.025158
 C         2.155910         1.191396        -0.897210
 C         3.653474         0.951340        -0.400044
 C         4.323337        -0.433601        -0.948289
 C         3.434844        -1.081041         0.101411
 O         2.008406        -1.164565        -0.305038
 C         3.324522         0.142443         1.052972
 O         1.994561         0.380411         1.320178
 H        -0.368908        -0.791687         0.649297
 H        -0.603623         0.891288         0.206805
 H        -0.518844        -0.273691        -1.144626
 H         1.911244         1.072401        -1.939315
 H         1.697541         2.158719        -0.556807
 H         4.255608         1.806080        -0.333187
 H         4.170839        -0.599857        -2.014215
 H         5.401266        -0.364752        -0.668314
 H         3.563529        -2.103300         0.445496
 H         4.062576         0.300996         1.839194
