19
Iteration:  2305charge 0 multiplicity 1
 C        -0.066820        -0.115278        -0.066120
 C         1.510976         0.065991         0.004094
 C         2.223807         1.150806        -0.839877
 C         3.661078         0.984213        -0.383825
 C         4.223467        -0.371934        -0.983935
 C         3.399382        -1.098145         0.094359
 O         1.951027        -1.209388        -0.226286
 C         3.324595         0.199327         0.959331
 O         1.947845         0.416537         1.317991
 H        -0.464135        -0.911497         0.525671
 H        -0.541725         0.896034         0.132678
 H        -0.328373        -0.501263        -1.087923
 H         2.154895         1.194096        -1.926230
 H         1.834547         2.089213        -0.510276
 H         4.391587         1.872125        -0.301250
 H         3.932566        -0.619255        -2.025688
 H         5.311427        -0.473100        -0.804709
 H         3.708206        -2.134680         0.491830
 H         4.020581         0.323597         1.718652
