19
Iteration:  1955
 C        -0.090905        -0.003141         0.116537
 C         1.446556         0.071937        -0.015360
 C         2.235533         1.120572        -0.968525
 C         3.609434         0.972931        -0.358685
 C         4.344090        -0.305330        -0.869864
 C         3.394273        -1.111957         0.114012
 O         2.004630        -1.269550        -0.322178
 C         3.283880         0.170067         0.930410
 O         1.935602         0.417238         1.220422
 H        -0.270253        -0.588816         1.062925
 H        -0.505572         0.963171         0.111121
 H        -0.320510        -0.739519        -0.627152
 H         1.947621         0.833901        -1.979542
 H         1.780143         2.048393        -0.792833
 H         4.235511         1.877063        -0.449543
 H         4.110417        -0.631600        -1.831977
 H         5.433453        -0.442888        -0.595270
 H         3.675603        -2.014911         0.594613
 H         3.915616         0.181524         1.831146
