19
Iteration:   316charge 0 multiplicity 1
 C        -0.041040         0.148585         0.099057
 C         1.434329         0.042308        -0.017976
 C         2.150062         1.050459        -0.970452
 C         3.619549         0.983996        -0.415898
 C         4.292648        -0.309005        -0.900811
 C         3.435006        -1.069958         0.126913
 O         2.117086        -1.341672        -0.292772
 C         3.306465         0.182223         0.955664
 O         1.862245         0.330480         1.256760
 H        -0.376830        -0.727576         0.782378
 H        -0.324035         0.980857         0.622636
 H        -0.695619         0.231074        -0.809219
 H         2.053893         0.810163        -2.022953
 H         1.655493         2.026780        -0.928450
 H         4.049151         1.956576        -0.400305
 H         4.189099        -0.567378        -1.967131
 H         5.350636        -0.392381        -0.653894
 H         3.820301        -1.963662         0.639543
 H         3.967236         0.301042         1.875585
