19
Iteration:   297
 C        -0.171382         0.027191         0.102223
 C         1.399412        -0.002746         0.002427
 C         2.148380         0.990320        -0.966924
 C         3.578369         0.984494        -0.287206
 C         4.358039        -0.339206        -0.879478
 C         3.450763        -1.148831         0.139420
 O         2.023424        -1.235095        -0.416814
 C         3.307354         0.263980         0.949067
 O         2.053508         0.437980         1.263874
 H        -0.656587        -0.708989         0.737061
 H        -0.439483         1.132345         0.463403
 H        -0.622135        -0.129700        -0.872218
 H         2.202582         0.644990        -1.996354
 H         1.694011         2.010446        -0.907457
 H         4.274586         1.870514        -0.325875
 H         4.105071        -0.729195        -1.894527
 H         5.413544        -0.330810        -0.722239
 H         3.664474        -2.069780         0.524853
 H         4.006418         0.587154         1.806565
