19
Iteration:  2208charge 0 multiplicity 1
 C        -0.098250         0.115466         0.068764
 C         1.431948         0.036849        -0.096297
 C         2.181032         0.974783        -0.995244
 C         3.636839         0.960032        -0.366465
 C         4.319183        -0.288583        -0.919826
 C         3.386580        -1.100847         0.127068
 O         2.029723        -1.211794        -0.358662
 C         3.339162         0.206531         1.039499
 O         1.921069         0.318632         1.357650
 H        -0.144495        -0.777865         0.715183
 H        -0.286975         1.165312         0.501937
 H        -0.691191        -0.201715        -0.855555
 H         2.116344         0.742111        -2.066714
 H         1.726358         1.941382        -0.868532
 H         4.129598         1.948828        -0.471127
 H         4.103571        -0.667648        -1.933973
 H         5.318227        -0.199279        -0.557885
 H         3.872551        -2.089799         0.501842
 H         4.004623         0.402707         1.843824
