19
Iteration:  1192
 C        -0.059223        -0.099076        -0.151817
 C         1.434981         0.133530         0.020939
 C         2.165026         1.145696        -0.769846
 C         3.593983         0.905817        -0.382139
 C         4.231693        -0.391485        -1.002594
 C         3.358404        -1.133954         0.133443
 O         2.038131        -1.181429        -0.279628
 C         3.357909         0.167749         0.969333
 O         1.979809         0.465368         1.337255
 H        -0.367448        -0.749191         0.731250
 H        -0.524026         0.870197        -0.076280
 H        -0.064900        -0.673998        -1.049800
 H         1.879218         0.978015        -1.940984
 H         2.126778         2.224217        -0.527436
 H         4.281184         1.693740        -0.261226
 H         3.863784        -0.715536        -1.975075
 H         5.384028        -0.212227        -0.890406
 H         3.775306        -2.156255         0.616786
 H         4.083899         0.290573         1.730152
