19
Iteration:   448charge 0 multiplicity 1
 C        -0.065915         0.087725         0.044859
 C         1.464703         0.108355         0.036895
 C         2.185209         1.009796        -0.959845
 C         3.590534         1.010326        -0.446102
 C         4.284841        -0.243681        -0.840651
 C         3.395823        -1.109372         0.100433
 O         1.940022        -1.290337        -0.350840
 C         3.371551         0.199903         0.976404
 O         2.000206         0.265163         1.315642
 H        -0.538001        -0.389633         0.893960
 H        -0.571843         1.117694         0.148665
 H        -0.350333        -0.416016        -0.845556
 H         2.129894         0.562782        -1.932009
 H         1.709079         2.016993        -1.029209
 H         4.088479         1.954693        -0.406091
 H         4.339797        -0.419939        -1.944019
 H         5.289284        -0.047460        -0.511343
 H         3.707443        -2.115215         0.482999
 H         4.151982         0.203083         1.844898
