19
Iteration:  4175
 C        -0.030181        -0.071422        -0.025498
 C         1.458384         0.008807        -0.072708
 C         2.193669         1.166485        -0.849993
 C         3.698603         0.958863        -0.384544
 C         4.200908        -0.380466        -0.957236
 C         3.346479        -1.070910         0.136276
 O         2.005466        -1.240737        -0.322448
 C         3.319500         0.251478         1.010793
 O         1.950680         0.393246         1.333044
 H        -0.342051        -0.865099         0.673816
 H        -0.376222         0.787794         0.514786
 H        -0.363390        -0.079498        -1.040414
 H         2.146390         1.271774        -1.970069
 H         1.779218         2.070741        -0.444246
 H         4.214974         1.937140        -0.674328
 H         4.192078        -0.715715        -2.084643
 H         5.342106        -0.590214        -0.872215
 H         3.674418        -2.059178         0.577835
 H         3.904905         0.274615         1.949112
