19
Iteration:  3977
 C        -0.080245         0.030720         0.013390
 C         1.444911         0.087255         0.025590
 C         2.155233         1.086072        -0.937478
 C         3.581407         1.004903        -0.353370
 C         4.309109        -0.295481        -0.925554
 C         3.394569        -1.164895         0.105581
 O         2.018122        -1.259112        -0.309861
 C         3.331527         0.149204         0.972615
 O         2.010937         0.399433         1.284126
 H        -0.410510        -0.869220         0.529534
 H        -0.655982         0.849536         0.467887
 H        -0.519292        -0.118991        -0.954426
 H         2.251378         0.755346        -1.998135
 H         1.674892         2.187991        -0.747477
 H         4.166914         1.867036        -0.342307
 H         4.068308        -0.565419        -1.932986
 H         5.349723        -0.292947        -0.540006
 H         3.789302        -2.165179         0.301535
 H         3.906276         0.161283         1.902152
