19
Iteration:  4722charge 0 multiplicity 1
 C        -0.058770         0.055904        -0.069358
 C         1.475477         0.062368         0.002423
 C         2.106506         1.103724        -0.834355
 C         3.645635         0.916395        -0.419815
 C         4.231308        -0.348665        -0.967308
 C         3.438970        -1.077380         0.129500
 O         2.019537        -1.199418        -0.284892
 C         3.300050         0.174397         1.004553
 O         1.970016         0.335040         1.341165
 H        -0.171374        -0.870315         0.468495
 H        -0.510676         0.982681         0.255524
 H        -0.338429        -0.248661        -1.056419
 H         2.072299         0.963871        -1.931543
 H         1.757758         2.105367        -0.722301
 H         4.154212         1.891242        -0.442508
 H         4.069331        -0.614133        -1.980584
 H         5.460020        -0.533180        -0.888757
 H         3.832897        -2.056111         0.439313
 H         3.890292         0.394789         1.899807
