19
Iteration:  2589charge 0 multiplicity 1
 C        -0.048291         0.026809        -0.078359
 C         1.503691         0.123471         0.048342
 C         2.144970         1.065754        -0.927427
 C         3.595501         0.976829        -0.342520
 C         4.221987        -0.297241        -0.940448
 C         3.418010        -1.117305         0.074894
 O         2.005695        -1.309534        -0.167338
 C         3.317395         0.196828         0.870633
 O         1.981823         0.402811         1.319765
 H        -0.406649        -0.725316         0.575810
 H        -0.492078         0.927559         0.170297
 H        -0.356099        -0.406352        -1.020994
 H         2.205583         0.601345        -1.939381
 H         1.805002         2.144993        -0.856651
 H         4.262404         1.831962        -0.330105
 H         4.153307        -0.431565        -2.072600
 H         5.229018        -0.500544        -0.593959
 H         3.821388        -2.106997         0.424491
 H         3.858918         0.299204         1.832341
