19
Iteration:  4781charge 0 multiplicity 1
 C         0.014994        -0.009510         0.010001
 C         1.459231         0.016800         0.034304
 C         2.187471         1.186987        -0.936970
 C         3.684745         0.911738        -0.366430
 C         4.217407        -0.346004        -0.982694
 C         3.410600        -1.108851         0.094981
 O         2.047551        -1.246412        -0.290081
 C         3.288355         0.210750         0.976407
 O         1.872382         0.382113         1.311973
 H        -0.429559        -0.794294         0.689468
 H        -0.581771         0.861062         0.329202
 H        -0.277919        -0.233595        -1.072475
 H         2.358787         1.175160        -1.980078
 H         1.737495         2.141588        -0.544387
 H         4.204789         1.885142        -0.304438
 H         3.881631        -0.540470        -2.081834
 H         5.366255        -0.440805        -0.744555
 H         3.718309        -2.039032         0.585374
 H         3.870271         0.295425         1.901620
