19
Iteration:  2039
 C        -0.029877        -0.111736        -0.044822
 C         1.468456         0.089493        -0.059027
 C         2.210219         1.129112        -0.894394
 C         3.709349         0.942060        -0.364923
 C         4.196322        -0.348855        -0.996652
 C         3.375872        -1.078611         0.198096
 O         1.987496        -1.239336        -0.264812
 C         3.332353         0.193247         0.987974
 O         1.967882         0.444291         1.288173
 H        -0.279466        -1.042088         0.452696
 H        -0.588339         0.619881         0.568195
 H        -0.558614         0.038661        -1.027110
 H         2.017268         0.998973        -1.933605
 H         1.820197         2.059062        -0.463196
 H         4.168860         1.959981        -0.562106
 H         3.942170        -0.641081        -2.024865
 H         5.243715        -0.546206        -0.770233
 H         3.507542        -1.992165         0.744311
 H         4.013627         0.318306         1.810379
