19
Iteration:  2643
 C        -0.047798        -0.065775         0.092744
 C         1.497157         0.144816         0.016033
 C         2.098049         1.171522        -1.004594
 C         3.540693         0.933836        -0.449651
 C         4.350808        -0.398685        -0.894504
 C         3.378272        -1.158021         0.257739
 O         2.084424        -1.196180        -0.394831
 C         3.332276         0.195634         0.947813
 O         1.912452         0.402678         1.305167
 H        -0.255480        -0.993319         0.601385
 H        -0.446984         0.687453         0.692766
 H        -0.445602         0.059211        -0.914687
 H         2.025170         0.994892        -2.116572
 H         1.942345         2.306818        -0.922763
 H         4.166691         1.821137        -0.514186
 H         4.245510        -0.966902        -1.869906
 H         5.372210        -0.410034        -0.573051
 H         3.500562        -2.203968         0.635135
 H         3.873142         0.350875         1.910184
