19
Iteration:  4168
 C        -0.010769        -0.066893         0.021235
 C         1.445011         0.023064        -0.038357
 C         2.250797         1.165124        -0.866779
 C         3.726591         0.983627        -0.334772
 C         4.253397        -0.393248        -0.957106
 C         3.372122        -1.110227         0.088468
 O         1.994951        -1.219964        -0.309899
 C         3.236094         0.252810         0.997080
 O         1.948656         0.388851         1.282223
 H        -0.392463        -0.895090         0.588606
 H        -0.368470         0.859528         0.494206
 H        -0.526444        -0.185881        -0.981791
 H         1.919992         0.848757        -1.901051
 H         1.663056         2.122568        -0.516529
 H         4.187140         1.899378        -0.578388
 H         3.913103        -0.569618        -1.965219
 H         5.238565        -0.493332        -0.681398
 H         3.712568        -2.087158         0.413445
 H         4.001044         0.375448         1.737535
