19
Iteration:   603
 C        -0.183265        -0.105242         0.011711
 C         1.398491         0.107719         0.050203
 C         2.164663         1.117145        -0.855741
 C         3.703856         0.940959        -0.430309
 C         4.284355        -0.396260        -0.907890
 C         3.405516        -1.120543         0.080142
 O         2.106087        -1.181577        -0.303931
 C         3.356280         0.198670         0.980461
 O         1.950572         0.472546         1.268150
 H        -0.510520        -0.655398         0.797343
 H        -0.633701         0.952195        -0.076002
 H        -0.477603        -0.594785        -0.901396
 H         1.937079         0.830493        -1.917429
 H         1.847939         2.157779        -0.649229
 H         4.159332         1.982324        -0.467218
 H         4.192955        -0.854318        -1.919682
 H         5.300084        -0.529513        -0.531719
 H         3.509732        -2.155440         0.328541
 H         3.936406         0.135767         1.850752
