19
Iteration:  4799
 C        -0.086208         0.012201         0.014146
 C         1.463994         0.071905        -0.047492
 C         2.169392         1.118442        -0.898726
 C         3.617960         1.018772        -0.345695
 C         4.219263        -0.345573        -0.891861
 C         3.398932        -1.128946         0.144827
 O         2.051243        -1.253669        -0.360953
 C         3.319753         0.178699         1.033032
 O         1.998833         0.333893         1.250972
 H        -0.284711        -0.719126         0.838621
 H        -0.391799         1.047415         0.242488
 H        -0.676298        -0.095186        -0.852649
 H         1.977645         0.750369        -1.964377
 H         1.813782         2.145610        -0.851130
 H         4.199424         1.967100        -0.462191
 H         4.014162        -0.638286        -1.865322
 H         5.327239        -0.280442        -0.626017
 H         3.772625        -2.125623         0.390090
 H         3.933620         0.381206         1.893058
