19
Iteration:  3664charge 0 multiplicity 1
 C         0.012842         0.026436        -0.139510
 C         1.403613         0.043870         0.007875
 C         2.152518         1.148154        -0.808176
 C         3.639924         0.951190        -0.411357
 C         4.190026        -0.357036        -0.953049
 C         3.431776        -1.160024         0.128877
 O         2.050114        -1.311658        -0.172382
 C         3.333872         0.305039         0.962173
 O         1.955051         0.338661         1.263183
 H        -0.382284        -0.623151         0.614331
 H        -0.276386         1.088036         0.000555
 H        -0.363801        -0.208887        -1.122110
 H         1.966666         0.903629        -1.913164
 H         1.746272         2.237924        -0.628968
 H         4.270304         1.811000        -0.236842
 H         3.641283        -0.539308        -1.932826
 H         5.257532        -0.357001        -1.104667
 H         3.934948        -2.036785         0.618416
 H         3.871363         0.619528         1.898984
