19
Iteration:  4754
 C        -0.111673        -0.058114        -0.126492
 C         1.433661         0.026072         0.005399
 C         2.124002         1.179802        -0.832807
 C         3.677512         0.948601        -0.408587
 C         4.162471        -0.353805        -0.926951
 C         3.416633        -1.099709         0.105187
 O         1.982063        -1.202675        -0.260400
 C         3.404092         0.187117         1.021019
 O         2.086658         0.391811         1.313124
 H        -0.478851        -0.966604         0.336244
 H        -0.818703         0.729221         0.073342
 H        -0.250186        -0.136682        -1.191072
 H         2.184037         1.101151        -1.967315
 H         1.667539         2.113545        -0.571264
 H         4.160608         1.917859        -0.380429
 H         3.974101        -0.599042        -1.932313
 H         5.207076        -0.532047        -0.592917
 H         3.683922        -2.086779         0.503180
 H         4.017126         0.302045         1.925621
