19
Iteration:   650
 C        -0.019967         0.056894        -0.097208
 C         1.444148         0.073322         0.043213
 C         2.187817         1.134825        -0.922867
 C         3.587234         0.949154        -0.393407
 C         4.132210        -0.319984        -0.942197
 C         3.477130        -1.116340         0.186471
 O         2.049589        -1.268646        -0.209484
 C         3.346850         0.169100         1.012821
 O         1.972310         0.363980         1.251237
 H        -0.415336        -0.649906         0.779457
 H        -0.368622         1.018360        -0.169542
 H        -0.256386        -0.376983        -1.132776
 H         1.898475         0.890617        -2.009376
 H         1.568366         1.959368        -0.571146
 H         4.304509         1.776120        -0.742924
 H         3.745264        -0.442978        -1.924927
 H         5.223650        -0.510794        -0.884524
 H         3.906032        -2.064270         0.467581
 H         3.903326         0.337800         1.968895
