19
Iteration:   394
 C         0.032242        -0.083106        -0.010710
 C         1.473002         0.099607        -0.072722
 C         2.178195         1.234152        -0.883434
 C         3.654078         1.031085        -0.386839
 C         4.149488        -0.428035        -0.923218
 C         3.359835        -1.088259         0.177201
 O         2.006476        -1.244101        -0.278956
 C         3.326818         0.234459         0.916146
 O         1.991681         0.307821         1.291900
 H        -0.232952        -0.772637         0.742707
 H        -0.549171         0.869560         0.083436
 H        -0.338751        -0.574993        -0.894557
 H         2.058117         1.086718        -1.944758
 H         1.645226         2.141842        -0.530442
 H         4.253394         1.925649        -0.198517
 H         3.919546        -0.589257        -1.987834
 H         5.172553        -0.531983        -0.687270
 H         3.678093        -1.958727         0.693819
 H         4.062796         0.212235         1.800344
