19
Iteration:  3269
 C        -0.032021         0.007629        -0.168780
 C         1.466380         0.076652         0.020453
 C         2.137666         1.143627        -0.816120
 C         3.614102         0.954520        -0.412305
 C         4.297339        -0.342980        -0.967374
 C         3.414919        -1.138219         0.096703
 O         1.981206        -1.189804        -0.269283
 C         3.322393         0.172311         1.014365
 O         1.999041         0.348626         1.371916
 H        -0.604885        -0.777636         0.359163
 H        -0.300268         0.901849         0.302179
 H        -0.329961        -0.057390        -1.178234
 H         1.922112         0.592381        -1.773157
 H         1.469312         1.962998        -0.598730
 H         4.093141         1.944279        -0.616702
 H         4.064294        -0.521777        -2.076748
 H         5.330409        -0.383418        -0.698225
 H         3.743773        -2.136371         0.599365
 H         4.003728         0.279681         1.923985
