19
Iteration:  2019
 C        -0.049232        -0.003275        -0.139721
 C         1.472109         0.025856         0.000959
 C         2.134834         1.223282        -0.850789
 C         3.613121         0.933549        -0.433467
 C         4.163068        -0.438523        -0.953518
 C         3.469677        -1.141961         0.104564
 O         2.070254        -1.269532        -0.171477
 C         3.356372         0.274118         1.004279
 O         1.951402         0.390498         1.307899
 H        -0.591138        -0.890761         0.358068
 H        -0.626154         0.836181         0.260889
 H        -0.446264        -0.067332        -1.170107
 H         2.087111         1.160799        -1.920671
 H         1.837411         2.145252        -0.531660
 H         4.314144         1.892525        -0.375492
 H         3.806681        -0.678092        -1.891464
 H         5.244127        -0.368909        -0.928212
 H         3.788179        -2.087489         0.476447
 H         4.045129         0.469207         1.841473
