19
Iteration:   278charge 0 multiplicity 1
 C        -0.036671        -0.071555         0.014284
 C         1.438705         0.156349        -0.014605
 C         2.158189         1.087114        -0.934316
 C         3.610031         0.948742        -0.511268
 C         4.289870        -0.368471        -0.892074
 C         3.351196        -1.090816         0.109369
 O         2.029566        -1.191480        -0.271492
 C         3.342993         0.185423         0.987277
 O         1.933385         0.393897         1.345221
 H        -0.223080        -0.794061         0.736026
 H        -0.465903         0.992006         0.325284
 H        -0.356321        -0.517683        -0.900913
 H         1.939701         0.645932        -1.935784
 H         1.910414         2.150091        -0.751525
 H         4.201320         1.948124        -0.593940
 H         4.327398        -0.569259        -1.988857
 H         5.302275        -0.505001        -0.407353
 H         3.810201        -2.062383         0.496174
 H         4.012214         0.143631         1.821196
