19
Iteration:  2801
 C        -0.077775         0.037467        -0.039069
 C         1.495502         0.072321        -0.011493
 C         2.187998         1.114055        -0.940671
 C         3.603194         0.987211        -0.370511
 C         4.270338        -0.378576        -0.914993
 C         3.423929        -1.137627         0.120293
 O         2.040955        -1.252894        -0.253033
 C         3.355381         0.251481         1.019508
 O         1.922537         0.334992         1.259918
 H        -0.629748        -0.615869         0.599126
 H        -0.431776         0.995284         0.464350
 H        -0.657506        -0.151694        -0.938625
 H         1.885879         0.813558        -1.957099
 H         1.667957         2.067177        -0.675374
 H         4.284982         1.856689        -0.526987
 H         4.067341        -0.626636        -1.971534
 H         5.414028        -0.591099        -0.818483
 H         3.775941        -2.105640         0.499182
 H         3.830231         0.513323         1.942788
