19
Iteration:   530charge 0 multiplicity 1
 C        -0.075817         0.012799        -0.078513
 C         1.465368         0.082513         0.073770
 C         2.132778         1.062680        -0.890123
 C         3.620180         0.972255        -0.460896
 C         4.280906        -0.322320        -0.939326
 C         3.389587        -1.129878         0.095432
 O         2.011823        -1.245757        -0.209464
 C         3.337632         0.145967         0.969468
 O         2.003199         0.409556         1.317683
 H        -0.364406        -1.045798         0.316122
 H        -0.580329         0.817374         0.410498
 H        -0.430509         0.097920        -1.171591
 H         2.133626         0.866452        -1.996098
 H         1.707493         2.034077        -0.648422
 H         4.086631         1.977179        -0.343670
 H         4.087665        -0.449534        -1.990777
 H         5.371645        -0.300188        -0.755271
 H         3.644760        -2.100767         0.568631
 H         4.018938         0.419014         1.730624
