19
Iteration:  3691charge 0 multiplicity 1
 C        -0.056066        -0.094705        -0.072032
 C         1.350885         0.091972         0.006757
 C         2.178344         1.080732        -0.883775
 C         3.667503         0.928089        -0.398201
 C         4.223105        -0.336545        -0.864431
 C         3.340683        -1.068127         0.068937
 O         2.005676        -1.197388        -0.276214
 C         3.398251         0.189161         0.966906
 O         2.017963         0.457050         1.312626
 H        -0.315305        -0.837715         0.737181
 H        -0.656763         0.813122        -0.002599
 H        -0.332666        -0.698516        -0.981973
 H         2.114810         0.774062        -1.938985
 H         1.901785         2.155472        -0.706344
 H         4.272789         1.849595        -0.288137
 H         4.043219        -0.584236        -1.884104
 H         5.280973        -0.496152        -0.574842
 H         3.779208        -1.985780         0.411571
 H         4.021797         0.202661         1.840455
