19
Iteration:  2878
 C        -0.034610        -0.099466         0.064446
 C         1.497000         0.034594        -0.178264
 C         2.197856         1.127507        -0.908917
 C         3.635046         0.945338        -0.344620
 C         4.287309        -0.381791        -0.914999
 C         3.334971        -1.136379         0.172113
 O         2.003324        -1.176485        -0.321667
 C         3.317806         0.210479         0.978236
 O         1.954992         0.449631         1.284914
 H        -0.275552        -0.836337         0.807350
 H        -0.496592         0.799002         0.549869
 H        -0.492505        -0.261527        -0.916827
 H         2.223230         1.146020        -2.027215
 H         1.737424         2.144632        -0.538496
 H         4.180181         1.911599        -0.323100
 H         3.945465        -0.477270        -1.925281
 H         5.460653        -0.530468        -0.818932
 H         3.548876        -2.132320         0.523463
 H         3.734649         0.291111         1.920432
