19
Iteration:  3619
 C        -0.037280        -0.007784        -0.000318
 C         1.448546         0.101668         0.022853
 C         2.141233         1.056129        -0.930079
 C         3.594240         0.935207        -0.357299
 C         4.314246        -0.351689        -0.896299
 C         3.399314        -1.135712         0.107612
 O         1.998107        -1.216959        -0.281022
 C         3.345198         0.201960         0.943723
 O         1.969345         0.432710         1.303252
 H        -0.404264        -0.935095         0.363791
 H        -0.693304         0.847943         0.295112
 H        -0.445492        -0.085972        -1.062948
 H         2.034733         0.712929        -2.014225
 H         1.707308         2.089815        -0.665205
 H         4.063241         1.897382        -0.442124
 H         4.295303        -0.555462        -2.043458
 H         5.312828        -0.447460        -0.421547
 H         3.760065        -2.187528         0.410013
 H         4.146441         0.443344         1.631087
