19
Iteration:  3528charge 0 multiplicity 1
 C        -0.050422         0.025987        -0.191079
 C         1.422978         0.084862         0.028334
 C         2.127322         1.049962        -0.795334
 C         3.605578         0.928184        -0.406800
 C         4.252956        -0.319624        -0.991139
 C         3.387908        -1.085737         0.054360
 O         1.985889        -1.256703        -0.139421
 C         3.379502         0.185229         0.962457
 O         2.002503         0.389559         1.340498
 H        -0.618976        -0.707543         0.542659
 H        -0.223375         1.132886        -0.163975
 H        -0.064451        -0.412081        -1.241359
 H         2.034463         0.590889        -1.772693
 H         1.769557         2.015960        -0.624615
 H         4.172223         1.881857        -0.357135
 H         4.079406        -0.283640        -2.132282
 H         5.405652        -0.390561        -0.680017
 H         3.761271        -1.956106         0.576752
 H         4.078132         0.400827         1.797726
