19
Iteration:   389
 C         0.020949        -0.125009        -0.034616
 C         1.479896         0.089628        -0.064774
 C         2.179824         1.234700        -0.897321
 C         3.656617         1.021014        -0.394567
 C         4.145079        -0.441210        -0.916205
 C         3.332979        -1.110918         0.136429
 O         2.009769        -1.186205        -0.247889
 C         3.379776         0.251236         0.932570
 O         1.959711         0.319248         1.323005
 H        -0.179687        -0.874115         0.832249
 H        -0.482351         0.837651         0.058323
 H        -0.294643        -0.501800        -1.063988
 H         1.945066         1.158621        -1.995716
 H         1.605053         2.104635        -0.582077
 H         4.395942         1.809795        -0.121989
 H         3.878151        -0.510792        -1.975266
 H         5.289950        -0.534570        -0.808040
 H         3.686830        -2.110438         0.642323
 H         4.024004         0.287836         1.758533
