19
Iteration:  3417
 C        -0.071079         0.018220        -0.034114
 C         1.434650         0.034357        -0.014253
 C         2.257158         1.043090        -0.947202
 C         3.662488         0.990671        -0.371910
 C         4.212170        -0.310575        -0.975057
 C         3.410411        -1.125777         0.082928
 O         2.016218        -1.276186        -0.236391
 C         3.366512         0.240569         0.998090
 O         1.873179         0.380266         1.341597
 H        -0.570830        -0.779104         0.593803
 H        -0.349291         0.931326         0.619250
 H        -0.512939         0.046245        -1.061106
 H         2.303984         0.736813        -1.965059
 H         1.779081         1.984380        -0.928862
 H         4.410653         1.780350        -0.178652
 H         4.155772        -0.353731        -2.084908
 H         5.370830        -0.200860        -0.895257
 H         3.636721        -2.047776         0.552566
 H         3.995745         0.373121         1.889416
