19
Iteration:  2045charge 0 multiplicity 1
 C        -0.016135        -0.072518        -0.009281
 C         1.483297         0.098842        -0.012831
 C         2.188048         1.103463        -0.875006
 C         3.689091         0.943172        -0.368099
 C         4.221396        -0.391270        -0.933154
 C         3.323935        -1.113912         0.122018
 O         1.992580        -1.254810        -0.309105
 C         3.360936         0.250676         0.983273
 O         1.935024         0.458412         1.283881
 H        -0.238301        -1.133202         0.301759
 H        -0.631491         0.569748         0.646160
 H        -0.589564        -0.193931        -0.931665
 H         2.146581         0.955443        -2.007049
 H         1.904838         2.232448        -0.790491
 H         4.230207         1.859761        -0.426032
 H         3.919156        -0.491595        -2.033956
 H         5.321059        -0.368644        -0.758163
 H         3.710082        -1.973271         0.791185
 H         4.099753         0.293430         1.812688
