19
Iteration:   193charge 0 multiplicity 1
 C        -0.108220         0.053921         0.025023
 C         1.449462         0.008757        -0.021675
 C         2.113356         1.046293        -0.986395
 C         3.618531         1.046703        -0.508515
 C         4.323523        -0.299423        -0.862445
 C         3.436703        -1.102889         0.129149
 O         1.964420        -1.289983        -0.207461
 C         3.334427         0.191867         0.967475
 O         2.022439         0.392543         1.298935
 H        -0.481597        -0.653974         0.777621
 H        -0.635007         1.074240         0.259406
 H        -0.441392        -0.311378        -0.967073
 H         1.987658         0.753053        -2.070182
 H         1.584756         2.009128        -0.786604
 H         4.302538         1.943358        -0.537767
 H         4.439644        -0.622253        -1.906131
 H         5.309510        -0.355721        -0.263174
 H         3.802978        -2.210227         0.471039
 H         4.049136         0.217179         1.732756
