19
Iteration:   909
 C        -0.073828         0.117289        -0.142549
 C         1.411343        -0.035573        -0.026562
 C         2.188478         1.004601        -0.926452
 C         3.623463         0.976818        -0.374612
 C         4.171745        -0.331039        -0.979450
 C         3.418015        -1.070780         0.167337
 O         2.076305        -1.323966        -0.161272
 C         3.367730         0.259447         1.059144
 O         1.975029         0.371301         1.297866
 H        -0.582219        -0.775353         0.419386
 H        -0.356159         1.054143         0.268808
 H        -0.406978         0.203207        -1.223580
 H         2.081640         0.991446        -2.081898
 H         1.720675         1.895661        -0.645988
 H         4.138496         1.955698        -0.604046
 H         3.745753        -0.732885        -1.886003
 H         5.295959        -0.276621        -1.049059
 H         3.931413        -1.956919         0.532092
 H         4.051156         0.653180         1.855976
