19
Iteration:  1032charge 0 multiplicity 1
 C        -0.055458         0.097666        -0.179191
 C         1.452414         0.058753         0.061663
 C         2.128893         1.038815        -0.882484
 C         3.552841         0.917046        -0.407667
 C         4.298663        -0.277502        -0.999740
 C         3.408960        -1.129121         0.077757
 O         2.061777        -1.259455        -0.152488
 C         3.347747         0.206823         1.002497
 O         1.958085         0.343792         1.349210
 H        -0.721513        -0.493377         0.515838
 H        -0.563418         1.091121         0.068242
 H        -0.330692        -0.266611        -1.153982
 H         1.975192         0.884497        -1.934044
 H         1.835382         2.066289        -0.612813
 H         4.247360         1.884326        -0.452414
 H         4.162019        -0.631870        -2.037391
 H         5.317871        -0.449665        -0.612266
 H         3.859654        -2.047454         0.327022
 H         4.014321         0.485658         1.762594
