19
Iteration:  3735charge 0 multiplicity 1
 C        -0.109564        -0.012319         0.114004
 C         1.446303         0.078389        -0.081064
 C         2.210845         1.076133        -0.877557
 C         3.598669         0.966777        -0.381375
 C         4.272913        -0.344811        -0.844890
 C         3.408520        -1.149228         0.164379
 O         2.092859        -1.207635        -0.384623
 C         3.300176         0.235395         0.954829
 O         1.956393         0.363557         1.201060
 H        -0.180467        -0.692737         0.962289
 H        -0.299551         1.079172         0.220479
 H        -0.677673        -0.332781        -0.850133
 H         1.802716         0.916590        -1.886963
 H         1.616779         2.090308        -0.622092
 H         4.235002         1.844437        -0.623140
 H         4.112302        -0.612254        -1.871510
 H         5.288921        -0.460829        -0.429924
 H         3.669153        -2.074656         0.665239
 H         3.836348         0.369886         1.868533
