19
Iteration:  1634
 C        -0.065774         0.115471        -0.026946
 C         1.426921         0.067498         0.019749
 C         2.136994         1.027969        -0.946051
 C         3.571125         0.940396        -0.432447
 C         4.317313        -0.376804        -0.906913
 C         3.458845        -1.080753         0.134415
 O         1.977262        -1.230169        -0.273311
 C         3.332746         0.190431         0.967662
 O         2.005591         0.332402         1.346128
 H        -0.434442        -0.827159         0.532674
 H        -0.586084         0.989159         0.207009
 H        -0.369120         0.033067        -1.058332
 H         1.929911         0.628481        -1.930520
 H         1.817197         2.118202        -0.804425
 H         4.194481         1.923034        -0.391198
 H         4.171555        -0.347050        -2.053675
 H         5.374163        -0.223782        -0.660434
 H         3.867080        -2.019724         0.502417
 H         3.893307         0.301487         1.865920
