19
Iteration:  1274
 C        -0.071952         0.141726         0.015305
 C         1.393234         0.010907        -0.015340
 C         2.186707         1.047247        -0.926725
 C         3.582967         0.973464        -0.385703
 C         4.304441        -0.300011        -0.923636
 C         3.385959        -1.101204         0.117023
 O         2.012149        -1.250262        -0.302329
 C         3.350804         0.204281         0.996841
 O         1.961532         0.283371         1.317008
 H        -0.346414        -0.876487         0.403546
 H        -0.435798         1.042608         0.590865
 H        -0.449537         0.138097        -1.039159
 H         2.209456         0.711266        -1.909427
 H         1.746773         2.047136        -0.971769
 H         4.236045         1.888738        -0.387943
 H         4.328776        -0.470450        -2.033091
 H         5.330140        -0.312397        -0.653314
 H         3.736697        -1.926914         0.578804
 H         4.195743         0.332668         1.739924
