19
Iteration:   882charge 0 multiplicity 1
 C         0.007535        -0.030287        -0.034125
 C         1.446229         0.053905         0.021064
 C         2.143780         1.116429        -0.956133
 C         3.621160         0.974318        -0.372541
 C         4.265291        -0.384544        -0.903481
 C         3.354253        -1.131277         0.138000
 O         2.028330        -1.296665        -0.242678
 C         3.315888         0.238169         0.942198
 O         1.952796         0.457325         1.283671
 H        -0.268023        -0.915322         0.456945
 H        -0.423459         0.918267         0.416198
 H        -0.348237        -0.055241        -1.041143
 H         2.042954         0.884695        -1.982121
 H         1.667701         2.161450        -0.839260
 H         4.234540         1.860635        -0.378314
 H         4.167015        -0.788072        -1.933215
 H         5.303081        -0.314411        -0.675053
 H         3.782036        -2.006059         0.663193
 H         4.014220         0.468307         1.723342
