19
Iteration:  2511charge 0 multiplicity 1
 C        -0.055446        -0.104622         0.085204
 C         1.440295         0.093896        -0.017248
 C         2.247791         1.075638        -0.966732
 C         3.610353         0.999525        -0.375218
 C         4.282464        -0.368972        -0.881217
 C         3.354336        -1.096626         0.064639
 O         2.009595        -1.231892        -0.354953
 C         3.356143         0.185459         0.928685
 O         1.927638         0.482086         1.359634
 H        -0.303290        -0.697458         0.904930
 H        -0.655041         0.813550         0.140736
 H        -0.623970        -0.568586        -0.722561
 H         2.231762         0.685560        -2.049137
 H         1.810719         2.119795        -0.735494
 H         4.243621         1.920715        -0.177541
 H         4.096708        -0.572675        -1.937233
 H         5.363535        -0.540470        -0.611143
 H         3.621437        -2.084576         0.431696
 H         4.108338         0.341773         1.705399
