19
Iteration:  4260
 C        -0.071605         0.018500         0.081704
 C         1.476543         0.057346        -0.084543
 C         2.159972         1.118699        -0.934110
 C         3.615028         0.955169        -0.384822
 C         4.314078        -0.324392        -0.921414
 C         3.454682        -1.098830         0.099044
 O         2.043475        -1.237556        -0.311238
 C         3.257937         0.131592         0.965111
 O         1.896002         0.389552         1.280440
 H        -0.245808        -0.612274         1.044896
 H        -0.262809         1.126937         0.202628
 H        -0.695130        -0.396772        -0.712072
 H         2.077218         1.009793        -2.010816
 H         1.957097         2.099657        -0.571009
 H         4.350548         1.834992        -0.241148
 H         4.164547        -0.690029        -1.872603
 H         5.287779        -0.530044        -0.429914
 H         3.838671        -2.114495         0.354719
 H         3.735235         0.369364         1.952403
