19
Iteration:  1934
 C        -0.091037        -0.080761         0.110426
 C         1.472102         0.046626        -0.089010
 C         2.143791         1.141249        -0.910905
 C         3.668702         0.905133        -0.397335
 C         4.265175        -0.433678        -0.865483
 C         3.375177        -1.100028         0.142337
 O         2.067526        -1.188585        -0.424955
 C         3.301648         0.302756         0.998410
 O         1.954314         0.423600         1.270278
 H        -0.147317        -0.623349         1.095312
 H        -0.407464         0.890718         0.257887
 H        -0.599407        -0.712857        -0.576239
 H         2.107607         0.936480        -2.027914
 H         1.690790         2.116740        -0.737310
 H         4.101796         1.846497        -0.377416
 H         4.279967        -0.718330        -1.886285
 H         5.356367        -0.452703        -0.521213
 H         3.423582        -2.052787         0.573614
 H         3.941023         0.463922         1.887442
