19
Iteration:   220
 C         0.015315         0.014949        -0.117792
 C         1.462626         0.041358         0.059237
 C         2.145971         1.055625        -0.894690
 C         3.577348         0.965206        -0.407511
 C         4.182877        -0.361885        -1.068147
 C         3.474149        -1.096122         0.175169
 O         2.025863        -1.294358        -0.188808
 C         3.352827         0.279865         1.010119
 O         1.937081         0.414413         1.351862
 H        -0.582230        -0.540618         0.655677
 H        -0.409829         0.985393        -0.200337
 H        -0.183684        -0.401410        -1.117630
 H         1.995632         0.824656        -1.936457
 H         1.733220         2.064908        -0.798620
 H         4.247354         1.816445        -0.417669
 H         3.757560        -0.598472        -2.055684
 H         5.239499        -0.519560        -1.089408
 H         3.873612        -1.963795         0.514531
 H         4.110370         0.449071         1.855209
