19
Iteration:  1067
 C        -0.079780        -0.050556        -0.075946
 C         1.479410         0.040922         0.047987
 C         2.243260         1.114069        -0.894715
 C         3.616781         0.916188        -0.388611
 C         4.147232        -0.339511        -0.916195
 C         3.310768        -1.094505         0.182427
 O         2.070448        -1.257254        -0.322370
 C         3.372397         0.262485         1.019162
 O         1.991973         0.429128         1.245664
 H        -0.182468        -0.934200         0.390517
 H        -0.551629         0.875019         0.401717
 H        -0.415453        -0.080984        -1.115518
 H         2.069160         1.026912        -1.889919
 H         1.730522         2.052147        -0.479704
 H         4.202881         1.925343        -0.279506
 H         3.771941        -0.656527        -1.950926
 H         5.203770        -0.568247        -0.912198
 H         3.771629        -2.033247         0.527326
 H         4.044508         0.282542         1.929204
