19
Iteration:  4395
 C        -0.121911        -0.020522         0.033595
 C         1.393084         0.036657        -0.089997
 C         2.196112         1.107144        -0.916198
 C         3.605861         0.908909        -0.407063
 C         4.343193        -0.335511        -0.816757
 C         3.431509        -1.101415         0.083223
 O         1.936510        -1.184177        -0.353545
 C         3.325319         0.218526         0.997493
 O         2.061587         0.399645         1.336963
 H        -0.409273        -0.947806         0.526656
 H        -0.616274         0.935262         0.265943
 H        -0.702281        -0.180991        -0.922162
 H         1.906738         0.890310        -1.926937
 H         1.809565         2.017654        -0.670676
 H         4.202064         1.812840        -0.512645
 H         4.473963        -0.593756        -1.877443
 H         5.391762        -0.416059        -0.480557
 H         3.549999        -2.110592         0.524404
 H         4.069411         0.210582         1.810270
