19
Iteration:   402
 C        -0.029850         0.000392         0.002078
 C         1.475789         0.073067        -0.032481
 C         2.180989         1.194720        -0.843538
 C         3.610266         1.004348        -0.367972
 C         4.199103        -0.342291        -0.942785
 C         3.391452        -1.073067         0.172619
 O         2.009384        -1.314819        -0.338319
 C         3.296629         0.188852         0.959954
 O         2.001146         0.345748         1.248747
 H        -0.294461        -0.649011         0.952042
 H        -0.536093         0.860404         0.145506
 H        -0.378512        -0.616198        -0.881579
 H         2.181376         1.058539        -1.923478
 H         1.900045         2.211537        -0.578572
 H         4.116172         1.900266        -0.553313
 H         4.031251        -0.825757        -1.919671
 H         5.280326        -0.497740        -0.688120
 H         3.784304        -2.027546         0.750330
 H         3.975271         0.364896         1.834654
