19
Iteration:  1792charge 0 multiplicity 1
 C        -0.060049        -0.078885         0.142247
 C         1.438022         0.110029        -0.048825
 C         2.225115         1.116567        -0.954107
 C         3.661578         0.960154        -0.433026
 C         4.305817        -0.338675        -0.879292
 C         3.362306        -1.153736         0.134461
 O         1.973472        -1.186467        -0.333332
 C         3.317397         0.215195         0.985133
 O         1.932181         0.414053         1.265624
 H        -0.370902        -0.700714         0.945855
 H        -0.518079         0.891448         0.058422
 H        -0.363853        -0.715988        -0.715968
 H         2.112765         0.699135        -2.086805
 H         1.872255         2.222881        -0.900902
 H         4.238681         1.797208        -0.642018
 H         4.370809        -0.648879        -1.916571
 H         5.395115        -0.546971        -0.535657
 H         3.722072        -2.046067         0.595939
 H         3.766457         0.272116         2.003785
