19
Iteration:  4936charge 0 multiplicity 1
 C        -0.153148         0.048545         0.021130
 C         1.436834         0.050214        -0.030987
 C         2.245755         1.096125        -0.927666
 C         3.586995         0.896050        -0.329815
 C         4.304980        -0.336847        -0.878528
 C         3.441079        -1.110696         0.049855
 O         2.045460        -1.200018        -0.315571
 C         3.298310         0.225310         0.994747
 O         1.952795         0.327018         1.334918
 H        -0.427701        -0.789261         0.585480
 H        -0.409333         1.002139         0.378324
 H        -0.647962        -0.134950        -0.968469
 H         2.159344         0.764587        -1.940668
 H         1.886337         2.115328        -0.924293
 H         4.059378         1.808487        -0.494410
 H         4.073721        -0.376826        -2.029409
 H         5.404082        -0.244315        -0.749856
 H         3.642950        -2.111537         0.399982
 H         4.079651         0.333724         1.737785
