19
Iteration:  3596charge 0 multiplicity 1
 C        -0.084881        -0.125517         0.082056
 C         1.419738         0.134097        -0.018966
 C         2.224716         1.154316        -0.964575
 C         3.714916         0.976834        -0.426299
 C         4.330995        -0.332449        -0.852451
 C         3.334944        -1.082116         0.120777
 O         1.969507        -1.251543        -0.338619
 C         3.286678         0.203531         0.967840
 O         1.974473         0.417232         1.285546
 H        -0.262051        -1.028655         0.669075
 H        -0.560073         0.746414         0.588240
 H        -0.795575        -0.272848        -0.794213
 H         2.158519         0.621261        -1.940197
 H         1.907810         2.225791        -0.930940
 H         4.325811         1.850353        -0.551862
 H         4.263554        -0.693753        -1.959073
 H         5.332897        -0.489711        -0.371245
 H         3.590823        -2.112037         0.484457
 H         3.930220         0.191526         1.834835
