19
Iteration:  3679charge 0 multiplicity 1
 C        -0.082427        -0.039249        -0.102903
 C         1.514005         0.023996        -0.037350
 C         2.203155         1.124903        -0.913802
 C         3.596332         0.985094        -0.364081
 C         4.189495        -0.345804        -1.021976
 C         3.418475        -1.100645         0.142658
 O         2.013214        -1.264964        -0.202187
 C         3.345180         0.170020         1.020611
 O         1.968313         0.455243         1.346757
 H        -0.411305        -0.696982         0.761972
 H        -0.510863         0.935938        -0.047828
 H        -0.214716        -0.411398        -1.114877
 H         2.079207         1.155866        -2.007184
 H         1.658250         2.092229        -0.567568
 H         4.204641         1.906788        -0.525709
 H         4.053374        -0.637373        -2.006789
 H         5.237633        -0.516096        -0.736482
 H         3.685111        -2.085204         0.473312
 H         4.025704         0.219584         1.870091
