19
Iteration:   788charge 0 multiplicity 1
 C        -0.092181         0.069057        -0.156827
 C         1.440999         0.096294         0.073543
 C         2.200504         0.968140        -0.851970
 C         3.642105         0.930585        -0.378615
 C         4.196548        -0.290090        -0.950999
 C         3.426171        -1.057813         0.121849
 O         2.008553        -1.333968        -0.240395
 C         3.357458         0.280413         0.927927
 O         2.002409         0.360652         1.361779
 H        -0.519904        -0.473540         0.627524
 H        -0.508795         1.101694        -0.234870
 H        -0.433252        -0.321383        -1.154160
 H         2.076752         0.712268        -1.918376
 H         1.667421         1.874660        -0.685489
 H         4.280090         1.822617        -0.374511
 H         3.860853        -0.442189        -1.994249
 H         5.300317        -0.365672        -0.868346
 H         3.757228        -2.011526         0.553527
 H         4.009367         0.538931         1.780106
