19
Iteration:  3733
 C        -0.123112        -0.031639         0.107947
 C         1.475252         0.104014        -0.071792
 C         2.203343         1.078621        -0.890884
 C         3.611522         0.940997        -0.389321
 C         4.270072        -0.353676        -0.832124
 C         3.415139        -1.118610         0.152846
 O         2.091232        -1.200816        -0.382521
 C         3.273541         0.219755         0.952820
 O         1.953331         0.358277         1.214142
 H        -0.190904        -0.656478         0.998886
 H        -0.317510         0.983813         0.215925
 H        -0.664117        -0.312552        -0.758960
 H         1.802694         0.961073        -1.935180
 H         1.648518         2.175196        -0.683475
 H         4.240740         1.846986        -0.624270
 H         4.136355        -0.623117        -1.797738
 H         5.282200        -0.429542        -0.458312
 H         3.679327        -2.049644         0.623768
 H         3.885736         0.336529         1.835557
