19
Iteration:  2033charge 0 multiplicity 1
 C        -0.071919        -0.109072        -0.076436
 C         1.433530         0.057584        -0.079006
 C         2.226402         1.149813        -0.880336
 C         3.667286         0.962829        -0.400467
 C         4.194491        -0.353936        -1.000899
 C         3.404527        -1.075696         0.214866
 O         1.998852        -1.210470        -0.219881
 C         3.314756         0.188441         0.989329
 O         1.998526         0.424858         1.291196
 H        -0.283768        -1.079338         0.499884
 H        -0.389542         0.749629         0.532267
 H        -0.357557         0.068459        -1.090895
 H         1.983886         1.088929        -1.984921
 H         1.764886         2.017294        -0.372315
 H         4.278388         1.873636        -0.489996
 H         3.934843        -0.726254        -1.994873
 H         5.262165        -0.668283        -0.886710
 H         3.633659        -2.108258         0.596340
 H         3.908901         0.345197         1.929938
