19
Iteration:   295
 C        -0.164604         0.030896         0.089486
 C         1.404228        -0.006178         0.004006
 C         2.148731         0.988661        -0.965967
 C         3.593078         0.968336        -0.301426
 C         4.339306        -0.339098        -0.884097
 C         3.449406        -1.129584         0.132368
 O         2.015888        -1.219646        -0.415438
 C         3.328499         0.253968         0.968626
 O         2.048616         0.443108         1.276914
 H        -0.619232        -0.759292         0.812038
 H        -0.512229         0.995906         0.394332
 H        -0.656768        -0.139125        -0.901542
 H         2.196653         0.705647        -2.006168
 H         1.666004         1.977230        -0.946057
 H         4.223356         1.812013        -0.362706
 H         4.178486        -0.741651        -1.893210
 H         5.383644        -0.291217        -0.670188
 H         3.621572        -2.086801         0.524228
 H         4.028102         0.575355         1.830677
