19
Iteration:   616charge 0 multiplicity 1
 C        -0.120750        -0.121215        -0.052956
 C         1.401329         0.102584         0.019629
 C         2.184405         1.089220        -0.843029
 C         3.677054         0.880428        -0.373448
 C         4.320865        -0.384546        -0.967016
 C         3.417198        -1.115586         0.131210
 O         1.950966        -1.192198        -0.299639
 C         3.340608         0.207992         0.948810
 O         1.981442         0.498146         1.317345
 H        -0.493616        -0.665455         0.868279
 H        -0.742025         0.754810        -0.091338
 H        -0.240359        -0.774288        -0.984952
 H         2.051378         1.161979        -1.989589
 H         1.964405         2.085920        -0.428326
 H         4.361327         1.816935        -0.446324
 H         3.984933        -0.406075        -1.986688
 H         5.414746        -0.490444        -0.984808
 H         3.893147        -1.868237         0.688647
 H         3.957917         0.411994         1.799065
