19
Iteration:  2032
 C        -0.078680        -0.101062        -0.080007
 C         1.428852         0.048882        -0.079319
 C         2.223522         1.155851        -0.875148
 C         3.653942         0.964650        -0.410241
 C         4.195855        -0.363009        -0.998880
 C         3.407789        -1.083539         0.210498
 O         2.002662        -1.205176        -0.211328
 C         3.314515         0.194663         0.992186
 O         2.001737         0.420803         1.291602
 H        -0.296281        -1.098436         0.485761
 H        -0.347759         0.762715         0.513501
 H        -0.333461         0.044773        -1.108683
 H         1.998385         1.121901        -1.964658
 H         1.782112         1.993154        -0.405913
 H         4.329015         1.881729        -0.462510
 H         3.928360        -0.717631        -1.949862
 H         5.266816        -0.664231        -0.911516
 H         3.681019        -2.089167         0.549834
 H         3.893576         0.348561         1.945434
