19
Iteration:   200charge 0 multiplicity 1
 C        -0.070222         0.070819        -0.020070
 C         1.412876         0.076160        -0.018383
 C         2.138520         1.073857        -0.967578
 C         3.596527         1.033798        -0.509089
 C         4.233272        -0.299632        -0.848229
 C         3.378315        -1.131682         0.105164
 O         2.031882        -1.312378        -0.131573
 C         3.339450         0.210338         0.919294
 O         2.049332         0.316670         1.307362
 H        -0.340082        -0.662118         0.690311
 H        -0.629383         1.064312         0.048379
 H        -0.361860        -0.328452        -0.965457
 H         2.022874         0.792048        -2.017787
 H         1.599868         2.036035        -0.964847
 H         4.274017         1.932641        -0.421580
 H         4.414388        -0.570906        -1.925597
 H         5.246084        -0.292560        -0.442862
 H         3.848274        -2.020038         0.518101
 H         4.003168         0.398567         1.824132
