19
Iteration:   916charge 0 multiplicity 1
 C        -0.077003         0.114987        -0.155982
 C         1.410084         0.025230         0.012963
 C         2.164648         1.075779        -0.950825
 C         3.618414         0.943719        -0.365325
 C         4.219613        -0.349809        -1.025722
 C         3.481647        -1.082591         0.140950
 O         2.116418        -1.334860        -0.116228
 C         3.332105         0.290012         0.945778
 O         1.912755         0.338225         1.350485
 H        -0.540240        -0.637373         0.370650
 H        -0.422105         1.070272         0.417886
 H        -0.275852         0.034293        -1.238637
 H         2.037635         0.784900        -1.955219
 H         1.783158         2.136149        -0.697895
 H         4.175376         1.827030        -0.387591
 H         3.793435        -0.695141        -2.000635
 H         5.277479        -0.436191        -0.961803
 H         3.722227        -2.043233         0.703435
 H         3.913200         0.518125         1.870800
