19
Iteration:  2564charge 0 multiplicity 1
 C        -0.062225        -0.004371        -0.155455
 C         1.500815         0.008944         0.045912
 C         2.109347         1.106455        -0.856864
 C         3.595634         0.948763        -0.456251
 C         4.193096        -0.370710        -1.014752
 C         3.455664        -1.047675         0.162898
 O         1.999974        -1.242410        -0.249230
 C         3.330045         0.227182         1.033962
 O         2.047423         0.382099         1.399464
 H        -0.785077        -0.551439         0.461331
 H        -0.360253         1.123906        -0.237069
 H        -0.299684        -0.561256        -1.117546
 H         2.076369         0.784344        -1.965490
 H         1.725629         2.127279        -0.534919
 H         4.434095         1.782828        -0.551860
 H         3.830380        -0.533113        -1.988114
 H         5.321020        -0.448735        -1.011258
 H         3.675949        -1.995916         0.587532
 H         3.879909         0.439412         1.933979
