19
Iteration:  2110charge 0 multiplicity 1
 C        -0.063239         0.087054        -0.013620
 C         1.428104        -0.041806        -0.013957
 C         2.165537         1.125346        -0.940637
 C         3.575936         0.951926        -0.430409
 C         4.222312        -0.335444        -0.929406
 C         3.432746        -1.112512         0.113043
 O         2.090083        -1.270453        -0.284855
 C         3.377835         0.220739         1.056456
 O         1.927384         0.371377         1.294415
 H        -0.423569        -0.507203         0.881887
 H        -0.260455         1.200277         0.076121
 H        -0.444949        -0.144328        -1.051566
 H         2.018694         0.956424        -2.038869
 H         1.604493         1.994229        -0.570047
 H         4.262349         1.790923        -0.382639
 H         4.048907        -0.480212        -2.029918
 H         5.257244        -0.432051        -0.570690
 H         3.760169        -2.158691         0.509576
 H         3.949706         0.244936         2.008362
