19
Iteration:  2416
 C        -0.017667        -0.151881        -0.136449
 C         1.479187         0.106047         0.120176
 C         2.182280         1.163220        -0.918135
 C         3.669979         0.957744        -0.359484
 C         4.140116        -0.327256        -0.999902
 C         3.324108        -1.134218         0.147723
 O         1.966127        -1.216923        -0.265042
 C         3.403386         0.220020         1.016280
 O         1.985165         0.437437         1.336615
 H        -0.190156        -1.144359         0.351033
 H        -0.723072         0.687691         0.190745
 H        -0.258972        -0.213153        -1.251253
 H         2.176365         0.771624        -1.923918
 H         1.839270         2.156626        -0.687061
 H         4.275830         1.848464        -0.426694
 H         3.858079        -0.728012        -2.031914
 H         5.216813        -0.482499        -0.896981
 H         3.883714        -2.075178         0.455900
 H         4.242770         0.479141         1.725518
