19
Iteration:  1251charge 0 multiplicity 1
 C        -0.084869         0.115827         0.122104
 C         1.386599        -0.001775        -0.051925
 C         2.149045         1.079086        -0.975943
 C         3.634721         0.968711        -0.314025
 C         4.332192        -0.298694        -0.862841
 C         3.452680        -1.177687         0.045418
 O         2.086205        -1.282962        -0.318347
 C         3.283467         0.184878         1.027590
 O         1.910496         0.397207         1.212319
 H        -0.492508        -0.663072         0.737193
 H        -0.296215         1.180199         0.519710
 H        -0.587192         0.084600        -0.889994
 H         1.915264         0.858199        -1.983494
 H         1.768751         2.113639        -0.767504
 H         4.200441         1.958661        -0.245434
 H         4.221348        -0.761580        -1.871183
 H         5.373947        -0.372835        -0.665846
 H         3.770688        -2.137910         0.224580
 H         4.053670         0.290331         1.834533
