19
Iteration:  3310charge 0 multiplicity 1
 C        -0.079486         0.074183         0.069393
 C         1.413499         0.004615        -0.088904
 C         2.152993         1.086424        -0.921567
 C         3.651635         1.059592        -0.381916
 C         4.352889        -0.305837        -0.924689
 C         3.364014        -1.129503         0.160371
 O         2.023563        -1.257287        -0.336858
 C         3.335040         0.191477         1.029755
 O         1.935284         0.275833         1.243520
 H        -0.138786        -0.480033         1.015304
 H        -0.311131         1.175686         0.093007
 H        -0.804537        -0.327906        -0.658053
 H         2.272445         0.826960        -2.070185
 H         1.884638         2.267138        -0.846516
 H         4.185940         2.024271        -0.208772
 H         4.198528        -0.502004        -2.013625
 H         5.355818        -0.392717        -0.561943
 H         3.537572        -2.142706         0.556470
 H         3.910681         0.302639         1.956645
