19
Iteration:   230charge 0 multiplicity 1
 C        -0.061423         0.002322        -0.144512
 C         1.466644        -0.036234         0.018539
 C         2.131310         1.051907        -0.847981
 C         3.682855         0.961806        -0.453054
 C         4.143684        -0.380569        -1.030283
 C         3.466289        -1.077157         0.163664
 O         2.076078        -1.235960        -0.218752
 C         3.319424         0.215849         1.024460
 O         1.980165         0.503889         1.368304
 H        -0.550924        -0.684397         0.658992
 H        -0.398721         0.985179        -0.165143
 H        -0.201985        -0.585776        -1.100418
 H         2.019946         0.848424        -1.897242
 H         1.603248         1.932728        -0.473119
 H         4.201073         1.896972        -0.485509
 H         3.553849        -0.690086        -1.896447
 H         5.163101        -0.436979        -1.282574
 H         3.762013        -1.958656         0.553282
 H         3.891661         0.381279         2.016576
