19
Iteration:  1022
 C        -0.088725         0.081398        -0.074834
 C         1.397389         0.066985         0.046333
 C         2.113605         1.020051        -0.886254
 C         3.653497         0.955072        -0.392368
 C         4.248260        -0.306821        -0.911332
 C         3.419921        -1.085569         0.108285
 O         2.047496        -1.334643        -0.265279
 C         3.353106         0.178206         0.978354
 O         2.004279         0.391047         1.319424
 H        -0.665246        -0.556848         0.544915
 H        -0.336649         1.176032        -0.270380
 H        -0.120370        -0.235950        -1.097786
 H         1.921133         0.851982        -1.903898
 H         1.743810         2.067793        -0.654163
 H         4.061229         2.029943        -0.587909
 H         4.183647        -0.360469        -2.024308
 H         5.319897        -0.367716        -0.661994
 H         3.678116        -1.960838         0.616588
 H         3.945047         0.359985         1.845089
