19
Iteration:  1607
 C        -0.009579         0.016142        -0.090356
 C         1.461257         0.021581        -0.003483
 C         2.239492         1.122031        -0.839609
 C         3.624713         1.005535        -0.342070
 C         4.112259        -0.397882        -1.005040
 C         3.401802        -1.099186         0.125451
 O         2.009813        -1.326082        -0.218419
 C         3.348886         0.229554         0.948742
 O         1.975062         0.428084         1.321953
 H        -0.486232        -0.658729         0.577063
 H        -0.556080         1.034460        -0.119759
 H        -0.363440        -0.339670        -1.140950
 H         2.173677         0.950946        -1.941129
 H         1.911038         2.086457        -0.592415
 H         4.189596         1.901382        -0.267333
 H         3.846236        -0.420437        -2.007192
 H         5.205466        -0.505572        -0.920511
 H         3.916808        -2.033584         0.458573
 H         3.980974         0.402460         1.864185
