19
Iteration:  3864charge 0 multiplicity 1
 C        -0.047510         0.018971         0.060006
 C         1.419124         0.092954         0.015152
 C         2.167879         1.031957        -0.931623
 C         3.569401         0.939316        -0.348656
 C         4.322784        -0.294277        -0.902554
 C         3.422084        -1.133728         0.063839
 O         1.997620        -1.199481        -0.364010
 C         3.301339         0.177920         0.997700
 O         1.988968         0.396768         1.284440
 H        -0.238711        -0.648513         0.898524
 H        -0.393006         1.002130         0.310859
 H        -0.282431        -0.422902        -0.902452
 H         2.066121         0.573687        -1.948653
 H         1.650722         2.109464        -0.864241
 H         4.043556         1.969622        -0.344653
 H         4.392380        -0.387922        -1.999859
 H         5.356616        -0.563042        -0.435788
 H         3.675651        -2.173246         0.249274
 H         3.802727         0.216470         1.944663
