19
Iteration:  3653charge 0 multiplicity 1
 C        -0.084331         0.100407        -0.127278
 C         1.524531         0.046061         0.022278
 C         2.167076         1.101017        -0.848025
 C         3.601474         0.969596        -0.384075
 C         4.134834        -0.353712        -0.977220
 C         3.466942        -1.046703         0.208707
 O         2.103479        -1.339041        -0.224567
 C         3.348360         0.269900         0.953237
 O         1.920963         0.301561         1.287765
 H        -0.541752        -0.601008         0.527278
 H        -0.473707         1.097957         0.173469
 H        -0.158603        -0.206201        -1.164868
 H         1.988782         0.968364        -1.968197
 H         1.734747         2.191495        -0.546860
 H         4.216540         1.839884        -0.586556
 H         3.756620        -0.723242        -1.987365
 H         5.174203        -0.651243        -0.942081
 H         3.755631        -2.074329         0.563760
 H         3.975189         0.540468         1.838881
