19
Iteration:  1970charge 0 multiplicity 1
 C        -0.097869        -0.008682        -0.005083
 C         1.389001         0.110995        -0.058436
 C         2.149197         1.046251        -0.940584
 C         3.623471         0.973388        -0.377594
 C         4.269355        -0.342454        -0.950177
 C         3.392416        -1.145110         0.091821
 O         2.029433        -1.252279        -0.245490
 C         3.369429         0.229429         1.005098
 O         1.983461         0.365521         1.325891
 H        -0.400427        -0.388080         0.951004
 H        -0.614653         0.988993        -0.017345
 H        -0.640167        -0.443534        -0.834285
 H         2.370026         0.758043        -1.997620
 H         1.855984         2.178582        -0.883341
 H         4.233545         1.848293        -0.253473
 H         4.342376        -0.383738        -2.116340
 H         5.266536        -0.319685        -0.463768
 H         3.951690        -2.102659         0.371603
 H         4.007297         0.507773         1.861966
