19
Iteration:  4737
 C         0.030061        -0.057210        -0.145445
 C         1.440595         0.143381         0.100809
 C         2.171117         1.160064        -0.857065
 C         3.547288         0.986782        -0.391166
 C         4.240332        -0.386354        -0.975666
 C         3.365359        -1.163732         0.095223
 O         2.032443        -1.243013        -0.284805
 C         3.366315         0.201106         0.926956
 O         1.947724         0.390710         1.397327
 H        -0.571230        -0.851656         0.408374
 H        -0.458021         0.828637         0.364066
 H        -0.070919        -0.126506        -1.262618
 H         1.858644         0.828449        -1.818207
 H         1.803698         2.182932        -0.542064
 H         4.319551         1.816348        -0.384921
 H         4.032771        -0.658332        -2.070461
 H         5.350500        -0.354015        -0.696564
 H         3.707552        -2.112671         0.560783
 H         4.131895         0.302922         1.685965
