19
Iteration:   201charge 0 multiplicity 1
 C        -0.062720         0.064894        -0.028307
 C         1.412442         0.086219        -0.013921
 C         2.143104         1.078442        -0.963955
 C         3.590792         1.024195        -0.502457
 C         4.219867        -0.301281        -0.851977
 C         3.369168        -1.127660         0.099061
 O         2.039096        -1.315132        -0.124408
 C         3.345794         0.216035         0.915737
 O         2.047427         0.308857         1.308277
 H        -0.329306        -0.647645         0.676671
 H        -0.625689         1.103881         0.036565
 H        -0.353457        -0.333710        -0.966055
 H         2.031075         0.776713        -2.028304
 H         1.612083         2.054714        -0.972786
 H         4.259243         1.956554        -0.415093
 H         4.399104        -0.568834        -1.935851
 H         5.267271        -0.283419        -0.458770
 H         3.875316        -2.052738         0.556311
 H         3.980070         0.426109         1.804382
