19
Iteration:  4241
 C        -0.054352         0.029782        -0.007070
 C         1.391203         0.045316        -0.021681
 C         2.193857         1.129078        -0.918625
 C         3.639726         1.003043        -0.311433
 C         4.261387        -0.318017        -0.930764
 C         3.379203        -1.160055         0.070474
 O         2.001801        -1.294497        -0.256576
 C         3.355989         0.212756         0.982112
 O         1.990736         0.369455         1.261337
 H        -0.518424        -0.619561         0.764060
 H        -0.533654         0.959383         0.238285
 H        -0.426876        -0.341878        -0.978626
 H         2.337191         0.848469        -1.987616
 H         1.670562         2.048245        -0.826031
 H         4.195444         1.985050        -0.279532
 H         3.977139        -0.364292        -2.095035
 H         5.390094        -0.345577        -0.612462
 H         3.744480        -2.096934         0.567292
 H         4.001324         0.248255         1.861322
