19
Iteration:   950
 C        -0.059453        -0.080335        -0.056403
 C         1.498236         0.030246        -0.025564
 C         2.134164         1.060053        -0.925724
 C         3.595562         0.920576        -0.403539
 C         4.232253        -0.378875        -0.846604
 C         3.361964        -1.109729         0.138277
 O         2.000845        -1.177836        -0.319659
 C         3.358258         0.321177         0.966678
 O         2.048354         0.449959         1.335102
 H        -0.323585        -0.876370         0.659784
 H        -0.605504         0.898639         0.115331
 H        -0.532365        -0.411345        -1.051593
 H         1.976862         1.025396        -2.015044
 H         1.843351         2.099051        -0.608184
 H         4.191235         1.742904        -0.486469
 H         4.235374        -0.625394        -1.930097
 H         5.240573        -0.547881        -0.500469
 H         3.443412        -2.183275         0.582837
 H         4.016985         0.200243         1.905386
