19
Iteration:  4488charge 0 multiplicity 1
 C        -0.076537         0.009039        -0.166348
 C         1.471521         0.015506         0.024507
 C         2.122730         1.089028        -0.840723
 C         3.696250         0.990316        -0.410723
 C         4.221869        -0.340797        -0.951153
 C         3.372495        -1.151150         0.091876
 O         1.967731        -1.236324        -0.268127
 C         3.392754         0.251128         0.996987
 O         1.993301         0.379854         1.409364
 H        -0.500595        -0.727889         0.499033
 H        -0.617194         0.913228        -0.054186
 H        -0.376549        -0.420416        -1.081003
 H         1.963246         0.950342        -1.884086
 H         1.919054         2.132435        -0.658897
 H         4.352343         1.896436        -0.416408
 H         4.079842        -0.528712        -2.096083
 H         5.313263        -0.467724        -0.841641
 H         3.784824        -2.001040         0.578414
 H         4.013158         0.425425         1.853319
