19
Iteration:  3986
 C        -0.141623         0.057622         0.039063
 C         1.484292         0.081225        -0.028076
 C         2.120205         1.059334        -0.951266
 C         3.632947         0.965531        -0.353337
 C         4.242879        -0.285530        -0.851030
 C         3.450799        -1.157842         0.103177
 O         2.017711        -1.215021        -0.324247
 C         3.375939         0.172313         1.006711
 O         1.959055         0.323855         1.256730
 H        -0.358092        -0.732808         0.653341
 H        -0.371348         0.938156         0.622165
 H        -0.491463        -0.031490        -0.986277
 H         2.082728         0.739758        -2.000345
 H         1.686720         2.131097        -0.916382
 H         4.087459         1.936315        -0.415382
 H         4.206441        -0.445516        -1.907922
 H         5.414797        -0.338907        -0.784314
 H         3.820832        -2.118685         0.424993
 H         4.028272         0.292383         1.890933
