19
Iteration:  3608
 C        -0.105091        -0.053373         0.044791
 C         1.399726         0.149520         0.060135
 C         2.210612         1.046021        -0.935891
 C         3.625445         0.982505        -0.418159
 C         4.285095        -0.367969        -0.850220
 C         3.335157        -1.122934         0.036051
 O         2.005602        -1.242877        -0.300570
 C         3.364108         0.211926         0.948498
 O         1.978919         0.420804         1.256249
 H        -0.170424        -0.957442         0.593713
 H        -0.664231         0.740625         0.616465
 H        -0.115832        -0.166881        -1.080457
 H         2.110617         0.888813        -2.069803
 H         1.802681         2.158523        -0.904486
 H         4.180659         1.869308        -0.218296
 H         4.536969        -0.617648        -1.978971
 H         5.306452        -0.349820        -0.419108
 H         3.741450        -1.965809         0.705959
 H         3.855329         0.233463         1.921309
