19
Iteration:  4613charge 0 multiplicity 1
 C        -0.059635        -0.012829        -0.110547
 C         1.437174         0.077400        -0.055699
 C         2.197632         1.199808        -0.869114
 C         3.611021         0.986552        -0.323913
 C         4.159857        -0.382652        -1.049024
 C         3.446978        -1.153199         0.108482
 O         2.049848        -1.322677        -0.198185
 C         3.320542         0.237033         1.005050
 O         1.943706         0.375285         1.338085
 H        -0.356073        -0.724996         0.617107
 H        -0.519327         0.950401         0.064058
 H        -0.466708        -0.226872        -1.089787
 H         2.280459         1.261574        -1.974239
 H         1.869822         2.089121        -0.432666
 H         4.310924         1.784063        -0.201864
 H         3.837530        -0.665204        -1.987650
 H         5.283804        -0.389680        -0.874608
 H         4.156249        -1.900649         0.429234
 H         4.061281         0.376511         1.837072
