19
Iteration:  4436
 C        -0.055366        -0.010345         0.007704
 C         1.451958         0.045361        -0.039252
 C         2.213986         1.107380        -0.908394
 C         3.664846         0.961599        -0.363678
 C         4.214201        -0.349446        -0.933812
 C         3.390763        -1.075177         0.156127
 O         2.018597        -1.237513        -0.354204
 C         3.297220         0.189856         1.015788
 O         1.954079         0.381063         1.319060
 H        -0.426240        -0.616130         0.855646
 H        -0.530761         0.987330         0.187219
 H        -0.496446        -0.507024        -0.966442
 H         2.346904         0.989096        -2.061115
 H         1.970627         2.191002        -0.784921
 H         4.312077         1.891712        -0.396789
 H         3.789802        -0.675260        -1.864771
 H         5.341527        -0.388324        -0.942945
 H         3.855398        -2.071642         0.491669
 H         3.863383         0.297622         1.915911
