19
Iteration:  4396
 C        -0.124669        -0.018729         0.036853
 C         1.381374         0.034527        -0.095118
 C         2.197504         1.105956        -0.918923
 C         3.609287         0.903435        -0.404648
 C         4.341780        -0.325547        -0.805229
 C         3.436995        -1.109744         0.072732
 O         1.933169        -1.180894        -0.349733
 C         3.321424         0.224402         0.999974
 O         2.065507         0.398275         1.330350
 H        -0.331079        -0.961715         0.540036
 H        -0.601028         0.942517         0.273990
 H        -0.662224        -0.200734        -0.908759
 H         1.944481         0.895104        -1.921996
 H         1.812352         2.033682        -0.665489
 H         4.178376         1.800879        -0.492861
 H         4.450717        -0.636918        -1.932939
 H         5.389440        -0.422450        -0.475550
 H         3.527818        -2.097872         0.510109
 H         4.070495         0.228485         1.838753
