19
Iteration:  3359
 C        -0.133925        -0.101877        -0.116761
 C         1.468570         0.128469         0.000774
 C         2.108906         1.144728        -0.880464
 C         3.655379         0.920439        -0.435978
 C         4.247569        -0.426272        -0.929331
 C         3.395998        -1.082067         0.129648
 O         2.002369        -1.112624        -0.308143
 C         3.387663         0.190926         1.017553
 O         2.019912         0.371454         1.398757
 H        -0.454466        -0.837765         0.587450
 H        -0.733290         0.800138        -0.158766
 H        -0.288022        -0.608264        -1.098751
 H         2.014791         1.008203        -1.933320
 H         1.814001         2.102160        -0.512136
 H         4.329938         1.760259        -0.526794
 H         4.013294        -0.621276        -1.951757
 H         5.330010        -0.405869        -0.597178
 H         3.727500        -2.089039         0.534538
 H         4.050498         0.290592         1.869948
