19
Iteration:  2788charge 0 multiplicity 1
 C        -0.092413        -0.000051         0.065728
 C         1.382362         0.041035        -0.073632
 C         2.227513         1.062763        -0.931602
 C         3.695398         0.916117        -0.392964
 C         4.255316        -0.343558        -0.922767
 C         3.425544        -1.049001         0.154800
 O         2.029361        -1.206795        -0.295399
 C         3.262782         0.195176         0.972274
 O         1.921318         0.378744         1.289749
 H        -0.098326        -0.757381         0.830384
 H        -0.402915         1.035988         0.299850
 H        -0.387874        -0.239074        -0.949052
 H         2.402557         0.864062        -2.041382
 H         1.926743         2.210819        -0.889708
 H         4.181845         1.866999        -0.181959
 H         3.950312        -0.633329        -1.995743
 H         5.335614        -0.344935        -0.715092
 H         3.729722        -2.094175         0.556458
 H         3.989260         0.295669         1.798016
