19
Iteration:   447charge 0 multiplicity 1
 C        -0.061897         0.097302         0.043270
 C         1.447283         0.110020         0.038143
 C         2.179455         1.012699        -0.960952
 C         3.577979         1.011022        -0.441461
 C         4.301757        -0.252799        -0.842489
 C         3.395037        -1.091633         0.089765
 O         1.944713        -1.287019        -0.347824
 C         3.380353         0.188856         0.975409
 O         1.999488         0.264090         1.316761
 H        -0.553281        -0.415341         0.924540
 H        -0.519471         1.093841         0.119577
 H        -0.380913        -0.432417        -0.852844
 H         2.142736         0.538524        -1.920444
 H         1.696090         2.001891        -1.046698
 H         4.061996         1.928718        -0.392159
 H         4.327319        -0.448068        -1.943717
 H         5.327647        -0.062701        -0.498559
 H         3.724100        -2.125987         0.509373
 H         4.147276         0.204964         1.860419
