19
Iteration:  3168
 C        -0.066622         0.106830         0.014128
 C         1.417172         0.037421        -0.047972
 C         2.114020         1.045347        -0.897644
 C         3.609952         0.882108        -0.308068
 C         4.384918        -0.251106        -0.870998
 C         3.345172        -1.139068         0.035018
 O         2.036899        -1.231260        -0.313846
 C         3.340164         0.166569         0.929951
 O         1.985757         0.323123         1.317923
 H        -0.381439        -0.508171         0.780511
 H        -0.249780         1.174260         0.131607
 H        -0.659656        -0.021501        -0.857785
 H         1.989256         0.761553        -1.988835
 H         1.796888         2.171691        -0.878120
 H         3.950140         1.920932        -0.292560
 H         4.329175        -0.408384        -1.982664
 H         5.349409        -0.046323        -0.479686
 H         3.693652        -2.062725         0.499246
 H         3.806493         0.189259         1.833241
