19
Iteration:  3674
 C        -0.038636        -0.027001        -0.112664
 C         1.527434         0.041028        -0.038331
 C         2.173845         1.149795        -0.899083
 C         3.612201         0.999842        -0.373513
 C         4.189251        -0.369741        -1.020198
 C         3.427909        -1.138433         0.139029
 O         2.009898        -1.280332        -0.185013
 C         3.311167         0.203886         1.030362
 O         1.965495         0.427939         1.332433
 H        -0.589708        -0.620023         0.597487
 H        -0.479104         0.997969         0.046573
 H        -0.391199        -0.463817        -1.082269
 H         2.152621         1.032526        -2.006204
 H         1.698611         2.030263        -0.461036
 H         4.184027         1.916251        -0.462920
 H         3.985581        -0.601346        -2.145607
 H         5.290710        -0.372709        -0.891449
 H         3.791523        -2.113263         0.575868
 H         4.035481         0.345534         1.854143
