19
Iteration:  4284
 C        -0.133416        -0.018052         0.070292
 C         1.485243         0.091274         0.010120
 C         2.127647         1.126588        -0.901460
 C         3.603717         0.969996        -0.372369
 C         4.324642        -0.395001        -0.883786
 C         3.341583        -1.094512         0.196723
 O         2.026475        -1.207696        -0.482662
 C         3.398016         0.261777         0.960069
 O         1.983242         0.325621         1.288697
 H        -0.461444        -0.724009         0.888882
 H        -0.560635         0.990060         0.094092
 H        -0.416371        -0.485590        -0.920237
 H         2.018713         0.803125        -1.939795
 H         1.861431         2.083370        -0.699214
 H         4.345619         1.833683        -0.427477
 H         4.122540        -0.771502        -1.916014
 H         5.375371        -0.474681        -0.397791
 H         3.554488        -2.081177         0.693140
 H         3.958188         0.463875         1.849794
