19
Iteration:  3195
 C        -0.098742         0.077755         0.036984
 C         1.418403         0.076073         0.034680
 C         2.148896         1.154459        -0.896606
 C         3.662269         0.946236        -0.426190
 C         4.294043        -0.327688        -0.828940
 C         3.398649        -1.135793         0.082967
 O         2.000884        -1.271398        -0.419769
 C         3.358338         0.237608         0.942054
 O         1.970279         0.294363         1.349395
 H        -0.439745        -0.928822         0.544355
 H        -0.582310         0.971892         0.508974
 H        -0.506229        -0.003151        -1.020098
 H         2.147440         0.653062        -1.848986
 H         1.752249         2.145453        -0.947506
 H         4.248192         1.885729        -0.450396
 H         4.307533        -0.683299        -1.897076
 H         5.345618        -0.130958        -0.362989
 H         3.828159        -2.165008         0.370207
 H         3.898748         0.367886         1.971477
