19
Iteration:  1180charge 0 multiplicity 1
 C         0.004299        -0.037919        -0.136179
 C         1.476325         0.022119         0.033147
 C         2.191644         1.154805        -0.802380
 C         3.654644         0.949315        -0.411096
 C         4.153182        -0.362669        -0.931666
 C         3.390201        -1.085461         0.130668
 O         2.001483        -1.242482        -0.275549
 C         3.349288         0.200832         0.956145
 O         1.977346         0.436737         1.338195
 H        -0.490495        -0.678639         0.674425
 H        -0.531044         0.839569        -0.217395
 H        -0.251692        -0.535650        -1.055916
 H         2.100736         1.200328        -1.990869
 H         1.648132         1.987659        -0.355109
 H         4.189436         1.874468        -0.436979
 H         3.781627        -0.548566        -1.944589
 H         5.268471        -0.626657        -1.000273
 H         3.684644        -2.159111         0.548670
 H         4.028609         0.276232         1.801326
