19
Iteration:  1551
 C        -0.056003        -0.034124         0.026840
 C         1.449014         0.126832         0.002071
 C         2.133390         1.081369        -0.874816
 C         3.683739         0.984176        -0.459703
 C         4.355915        -0.392177        -0.887105
 C         3.330575        -1.116400         0.171268
 O         1.978512        -1.201431        -0.398761
 C         3.356269         0.188603         0.981481
 O         1.967995         0.380959         1.335356
 H        -0.614487        -0.639334         0.794812
 H        -0.675922         0.933162         0.077696
 H        -0.410961        -0.574016        -0.874622
 H         1.968827         0.871753        -1.981465
 H         1.909914         2.122695        -0.751423
 H         4.152236         1.933290        -0.464221
 H         4.306274        -0.515293        -1.939466
 H         5.442820        -0.399225        -0.651595
 H         3.476728        -2.138811         0.527719
 H         3.989056         0.301873         1.840117
