19
Iteration:  3749
 C        -0.026915         0.062652         0.045666
 C         1.470160        -0.032706        -0.041176
 C         2.084722         1.101580        -0.910262
 C         3.634640         0.978756        -0.377367
 C         4.281796        -0.359103        -0.883671
 C         3.405987        -1.102941         0.155856
 O         2.031418        -1.308610        -0.366920
 C         3.334317         0.254723         0.998493
 O         1.937039         0.386607         1.247841
 H        -0.475807        -0.590061         0.830410
 H        -0.478396         1.045757         0.462914
 H        -0.560161        -0.256265        -0.939303
 H         2.297425         1.083458        -1.967951
 H         1.774504         2.064646        -0.663018
 H         4.095216         1.938327        -0.247804
 H         4.243120        -0.652436        -2.030820
 H         5.393112        -0.294979        -0.730345
 H         3.717237        -2.094217         0.559962
 H         4.002373         0.492738         1.859531
