19
Iteration:  1033
 C        -0.059408         0.095165        -0.187398
 C         1.457295         0.053418         0.063884
 C         2.136590         1.044672        -0.885262
 C         3.545141         0.916929        -0.410904
 C         4.300953        -0.282399        -1.003698
 C         3.414079        -1.135347         0.077509
 O         2.056390        -1.250754        -0.144623
 C         3.346587         0.214800         1.000526
 O         1.953052         0.339800         1.351963
 H        -0.657393        -0.478612         0.490812
 H        -0.556248         1.091309         0.097466
 H        -0.348602        -0.267019        -1.146827
 H         1.988594         0.873177        -1.899069
 H         1.808973         2.091725        -0.603790
 H         4.238694         1.871059        -0.417147
 H         4.162510        -0.659695        -2.048152
 H         5.314164        -0.437596        -0.626543
 H         3.888484        -2.048212         0.296689
 H         4.036883         0.474486         1.775396
