19
Iteration:  1879charge 0 multiplicity 1
 C        -0.074971         0.034351        -0.150008
 C         1.431975         0.026502         0.029141
 C         2.227474         1.038172        -0.892772
 C         3.630438         0.959833        -0.419469
 C         4.125570        -0.262921        -0.971645
 C         3.443466        -1.113107         0.149744
 O         2.010025        -1.344979        -0.156149
 C         3.401029         0.235210         0.973297
 O         1.997113         0.437838         1.306945
 H        -0.472311        -0.858133         0.323528
 H        -0.525956         0.890190         0.273328
 H        -0.168910        -0.020626        -1.234067
 H         2.054344         0.864202        -2.069786
 H         1.722341         1.995386        -0.598989
 H         3.999726         1.945561        -0.480917
 H         3.733594        -0.530353        -1.934625
 H         5.228690        -0.316851        -0.640625
 H         3.826075        -2.017184         0.532826
 H         3.993787         0.369194         1.887483
