19
Iteration:  3465
 C        -0.078800        -0.058766         0.076999
 C         1.432267         0.098852        -0.042508
 C         2.156531         1.197127        -0.900134
 C         3.603772         0.882003        -0.454938
 C         4.330947        -0.430150        -0.846871
 C         3.413530        -1.117926         0.154313
 O         2.082763        -1.230079        -0.416396
 C         3.243535         0.234092         0.971699
 O         1.954886         0.424544         1.312681
 H        -0.555932        -0.747960         0.832608
 H        -0.560132         0.792307         0.483896
 H        -0.489165        -0.285534        -0.914566
 H         1.949307         1.161926        -2.044856
 H         1.967302         2.305537        -0.571792
 H         4.217027         1.791011        -0.488567
 H         4.388185        -0.765758        -1.909805
 H         5.354768        -0.580430        -0.552075
 H         3.704893        -2.102528         0.604330
 H         3.922204         0.484198         1.795840
