19
Iteration:  3230charge 0 multiplicity 1
 C        -0.017967        -0.096729        -0.065087
 C         1.446980         0.090530        -0.068638
 C         2.186649         1.213622        -0.791958
 C         3.707997         0.956310        -0.329948
 C         4.165495        -0.384166        -0.997859
 C         3.442089        -1.154865         0.085529
 O         2.013320        -1.260647        -0.262139
 C         3.294123         0.201280         1.042499
 O         1.914893         0.467942         1.271948
 H        -0.232868        -1.120240         0.359764
 H        -0.468203         0.651362         0.684190
 H        -0.462540        -0.008338        -1.121926
 H         2.123638         1.106473        -1.849161
 H         1.956684         2.279084        -0.606731
 H         4.547391         1.624356        -0.366794
 H         3.806775        -0.688649        -1.939539
 H         5.301544        -0.377461        -1.156495
 H         3.693833        -2.122861         0.453822
 H         3.896692         0.258125         1.977065
