19
Iteration:  2529charge 0 multiplicity 1
 C         0.004898        -0.086757         0.001112
 C         1.433546         0.062876        -0.052215
 C         2.148833         1.225407        -0.862252
 C         3.632437         0.925826        -0.409429
 C         4.218229        -0.369817        -0.946471
 C         3.397683        -1.132769         0.180413
 O         2.007511        -1.225893        -0.273452
 C         3.338246         0.234306         0.984379
 O         2.001956         0.397746         1.236732
 H        -0.293321        -0.604179         0.975377
 H        -0.605642         0.885969        -0.075268
 H        -0.347909        -0.646672        -0.895624
 H         1.902302         1.158424        -1.920495
 H         1.666489         2.126327        -0.472472
 H         4.304226         1.796394        -0.629932
 H         4.074776        -0.698096        -1.957754
 H         5.269297        -0.498149        -0.649410
 H         3.694633        -2.086831         0.601089
 H         3.821922         0.336980         1.947037
