19
Iteration:   696charge 0 multiplicity 1
 C        -0.038960         0.039962         0.076910
 C         1.424323         0.116649         0.004441
 C         2.150577         1.055861        -0.984700
 C         3.574335         0.951011        -0.482739
 C         4.321678        -0.296477        -0.847712
 C         3.374680        -1.168388         0.130655
 O         1.969191        -1.230081        -0.292386
 C         3.351821         0.185566         1.028793
 O         1.996115         0.351711         1.228690
 H        -0.206840        -1.043579         0.544788
 H        -0.555354         0.951666         0.405788
 H        -0.325028         0.085297        -0.967771
 H         2.050202         0.743541        -2.002787
 H         1.785733         2.098073        -0.862042
 H         4.115989         1.860746        -0.405719
 H         4.359097        -0.732734        -1.839365
 H         5.324237        -0.070644        -0.457750
 H         3.878956        -2.014317         0.609465
 H         3.944502         0.390086         1.967331
