19
Iteration:  2290
 C        -0.011350        -0.091184        -0.135685
 C         1.375268         0.099223        -0.033606
 C         2.186985         1.244560        -0.832443
 C         3.627617         0.875531        -0.408624
 C         4.134079        -0.408920        -0.959313
 C         3.375510        -1.151441         0.185983
 O         2.074304        -1.212310        -0.317289
 C         3.363648         0.251541         1.052901
 O         2.014810         0.411234         1.336612
 H        -0.193880        -0.928937         0.582360
 H        -0.597632         0.647177         0.303138
 H        -0.275073        -0.279175        -1.133239
 H         1.835086         1.061673        -1.896612
 H         1.794024         2.270385        -0.469039
 H         4.185646         1.832313        -0.556797
 H         3.822253        -0.628308        -1.985786
 H         5.271156        -0.551066        -1.040993
 H         3.861396        -2.034559         0.510638
 H         3.974672         0.424744         2.032976
