19
Iteration:  2698charge 0 multiplicity 1
 C         0.010889         0.046166        -0.139877
 C         1.497558         0.030340        -0.026522
 C         2.148604         1.086490        -0.908175
 C         3.586658         0.960507        -0.368514
 C         4.160474        -0.283066        -1.037686
 C         3.415223        -1.105581         0.160601
 O         2.043081        -1.294494        -0.114674
 C         3.324006         0.177709         1.015556
 O         1.966196         0.393214         1.312465
 H        -0.391213        -0.650118         0.608131
 H        -0.356531         1.008443        -0.057498
 H        -0.458828        -0.105310        -1.121665
 H         2.162055         0.863820        -2.034557
 H         1.844320         2.190713        -0.749360
 H         4.186636         1.854279        -0.304414
 H         3.756385        -0.674599        -2.024119
 H         5.210345        -0.408653        -0.950426
 H         3.842995        -2.132530         0.371263
 H         4.056599         0.347564         1.847768
