19
Iteration:  2127charge 0 multiplicity 1
 C        -0.043691         0.013479        -0.110574
 C         1.478779         0.088320        -0.034234
 C         2.172740         1.097761        -0.835964
 C         3.620421         0.984158        -0.329869
 C         4.204467        -0.347922        -0.985467
 C         3.431002        -1.123791         0.132262
 O         1.993098        -1.246433        -0.211041
 C         3.301239         0.162395         0.945258
 O         1.985687         0.364372         1.316876
 H        -0.325704        -0.532673         0.792854
 H        -0.501040         0.969437        -0.106072
 H        -0.279422        -0.461356        -1.044683
 H         2.123968         0.787817        -1.867154
 H         1.921866         2.131311        -0.703394
 H         4.144313         2.016163        -0.316704
 H         3.829895        -0.686441        -1.937988
 H         5.294440        -0.324918        -1.140501
 H         3.901276        -1.930573         0.571565
 H         3.970462         0.474515         1.771734
