19
Iteration:   819charge 0 multiplicity 1
 C        -0.019360        -0.020983         0.022645
 C         1.485270         0.079111        -0.063672
 C         2.167526         1.131142        -0.933506
 C         3.617569         0.920419        -0.426749
 C         4.265776        -0.333936        -0.889622
 C         3.444021        -1.131176         0.153311
 O         1.994641        -1.228011        -0.268017
 C         3.293132         0.168809         1.016999
 O         1.926396         0.403641         1.242139
 H        -0.232632        -0.422755         0.972087
 H        -0.478450         1.100929         0.104332
 H        -0.595073        -0.543856        -0.779723
 H         2.142635         0.911484        -1.967867
 H         1.700272         2.107049        -0.696623
 H         4.290276         1.693763        -0.465600
 H         4.162494        -0.679473        -1.937011
 H         5.301756        -0.163143        -0.625192
 H         3.748035        -2.181160         0.446344
 H         3.897138         0.431756         1.891911
