19
Iteration:  2093charge 0 multiplicity 1
 C        -0.068414         0.103070         0.077022
 C         1.427795         0.078798         0.007399
 C         2.151203         1.059559        -0.897183
 C         3.625248         0.973938        -0.403917
 C         4.355171        -0.338258        -0.853567
 C         3.435689        -1.113130         0.133174
 O         2.029501        -1.319488        -0.373804
 C         3.270744         0.260153         0.906721
 O         1.958309         0.315034         1.270057
 H        -0.534210        -0.623181         0.674469
 H        -0.363892         1.079871         0.435598
 H        -0.626942        -0.079685        -0.850221
 H         2.009822         0.844616        -1.947820
 H         1.688889         2.103710        -0.753718
 H         4.092217         1.977059        -0.471134
 H         4.304815        -0.754135        -1.884773
 H         5.357229        -0.380246        -0.392067
 H         3.672339        -2.082548         0.577111
 H         3.949492         0.516437         1.715926
