19
Iteration:   572charge 0 multiplicity 1
 C         0.026800         0.099398         0.089149
 C         1.460096         0.039555        -0.062531
 C         2.200613         1.004964        -0.978451
 C         3.575778         0.974731        -0.404723
 C         4.318304        -0.246573        -0.845387
 C         3.369307        -1.093604         0.217262
 O         2.004786        -1.264196        -0.339170
 C         3.303956         0.218121         0.906230
 O         1.937580         0.288533         1.269415
 H        -0.253067        -0.557206         0.980715
 H        -0.255934         1.152383         0.491469
 H        -0.458128        -0.113771        -0.931264
 H         1.834003         0.740002        -2.059784
 H         1.815014         2.006663        -0.718785
 H         4.015091         2.071486        -0.396586
 H         3.987060        -0.600651        -1.811971
 H         5.390618        -0.365944        -0.735530
 H         3.547051        -2.080996         0.611425
 H         3.965197         0.221064         1.707285
