19
Iteration:  3670
 C         0.002919        -0.005270        -0.123297
 C         1.481374         0.049058        -0.028529
 C         2.155427         1.159405        -0.872680
 C         3.627395         0.988874        -0.392330
 C         4.187912        -0.377532        -1.002541
 C         3.430166        -1.166032         0.132406
 O         2.018459        -1.290675        -0.175560
 C         3.308659         0.243032         1.020315
 O         1.965897         0.396322         1.308620
 H        -0.633427        -0.638205         0.565603
 H        -0.401202         1.013437         0.052452
 H        -0.480654        -0.441109        -1.082744
 H         2.140090         0.941564        -1.910863
 H         1.746067         2.055923        -0.478828
 H         4.228795         1.928718        -0.351018
 H         3.891302        -0.553488        -2.068322
 H         5.321511        -0.296290        -1.000196
 H         3.866668        -2.035730         0.600796
 H         3.968135         0.459419         1.833382
