19
Iteration:  1937charge 0 multiplicity 1
 C        -0.055645        -0.104858         0.126606
 C         1.470000         0.046280        -0.084681
 C         2.123131         1.111648        -0.915196
 C         3.691941         0.935765        -0.401149
 C         4.263637        -0.439090        -0.851700
 C         3.385924        -1.093261         0.148314
 O         2.041399        -1.185597        -0.430939
 C         3.302909         0.282896         0.988363
 O         1.934909         0.430960         1.265920
 H        -0.185384        -0.542984         1.145712
 H        -0.400232         0.954267         0.182848
 H        -0.668644        -0.616764        -0.607282
 H         2.206015         0.993848        -2.040235
 H         1.699641         2.183234        -0.717020
 H         4.124532         1.890947        -0.301407
 H         4.351170        -0.690890        -1.960228
 H         5.334049        -0.484052        -0.588855
 H         3.511463        -2.121344         0.602077
 H         3.944905         0.463281         1.872901
