19
Iteration:  4853
 C        -0.044118        -0.020952        -0.040854
 C         1.495861         0.046514        -0.075521
 C         2.189373         1.158895        -0.914376
 C         3.602822         0.966902        -0.285156
 C         4.198319        -0.370080        -0.944616
 C         3.381790        -1.097371         0.142621
 O         1.999243        -1.226679        -0.314823
 C         3.340458         0.177171         0.987968
 O         2.009453         0.365733         1.323027
 H        -0.502763        -0.726924         0.719125
 H        -0.675283         0.884980         0.153320
 H        -0.355492        -0.351098        -1.017365
 H         2.003556         0.967361        -2.016378
 H         1.827349         2.131765        -0.573077
 H         4.188071         1.936336        -0.290654
 H         4.064766        -0.477429        -1.957108
 H         5.226125        -0.354724        -0.712974
 H         3.673674        -2.089542         0.523544
 H         4.160644         0.346110         1.684530
