19
Iteration:  3922charge 0 multiplicity 1
 C         0.025287        -0.035732        -0.097589
 C         1.439310         0.056447         0.043417
 C         2.149042         1.229224        -0.866241
 C         3.561037         0.911560        -0.359364
 C         4.144002        -0.393234        -0.985621
 C         3.480354        -1.127888         0.196569
 O         2.092616        -1.230105        -0.324854
 C         3.363328         0.214550         0.927524
 O         1.920598         0.378895         1.363638
 H        -0.388964        -0.641011         0.656491
 H        -0.417248         0.965890        -0.028983
 H        -0.478467        -0.369644        -0.999537
 H         1.983039         1.227565        -1.971686
 H         1.672620         2.343518        -0.574688
 H         4.299178         1.651434        -0.371519
 H         3.764889        -0.625224        -1.946532
 H         5.254036        -0.533399        -1.030232
 H         3.882071        -2.085123         0.590219
 H         3.993349         0.251596         1.839527
