19
Iteration:  3762charge 0 multiplicity 1
 C        -0.053464         0.030718        -0.033226
 C         1.422525         0.053264        -0.016866
 C         2.194601         1.126770        -0.963889
 C         3.578927         0.959083        -0.362706
 C         4.291931        -0.297611        -0.931279
 C         3.466632        -1.066798         0.089170
 O         2.019212        -1.309118        -0.248104
 C         3.282119         0.188393         0.955760
 O         1.951158         0.363640         1.359764
 H        -0.471633        -0.781989         0.607484
 H        -0.206509         1.087860         0.258459
 H        -0.391577        -0.027033        -1.050015
 H         1.916408         0.772815        -1.960962
 H         1.704513         1.985970        -0.720708
 H         4.229646         1.819462        -0.401621
 H         3.982300        -0.616745        -1.987503
 H         5.348525        -0.462194        -0.640204
 H         3.899611        -1.991241         0.529488
 H         3.984107         0.240008         1.822420
