19
Iteration:  3992charge 0 multiplicity 1
 C        -0.091176         0.071613         0.078198
 C         1.397656         0.038387        -0.087484
 C         2.164935         1.051866        -0.947658
 C         3.633642         0.944237        -0.348549
 C         4.246817        -0.309073        -0.871036
 C         3.473835        -1.089455         0.086081
 O         2.048800        -1.200572        -0.340304
 C         3.368678         0.199971         1.023917
 O         1.933443         0.272547         1.282814
 H        -0.404053        -0.851670         0.736075
 H        -0.196431         1.132549         0.456411
 H        -0.627400         0.186191        -0.915605
 H         1.867286         0.732321        -1.979561
 H         1.714668         2.046337        -0.967239
 H         4.175621         1.958497        -0.345494
 H         4.152335        -0.448475        -1.996668
 H         5.275039        -0.425176        -0.651905
 H         3.658120        -2.047630         0.642263
 H         4.059278         0.494965         1.821953
