19
Iteration:  3774charge 0 multiplicity 1
 C        -0.081981         0.059188        -0.130791
 C         1.470111         0.052421         0.043867
 C         2.164344         1.034729        -0.883185
 C         3.635969         1.019130        -0.422580
 C         4.210099        -0.288646        -0.971966
 C         3.389853        -1.156479         0.104056
 O         2.051949        -1.209724        -0.175259
 C         3.354658         0.174876         0.991303
 O         1.959146         0.325023         1.326076
 H        -0.475087        -0.822608         0.442753
 H        -0.657955         0.827468         0.334692
 H        -0.371137        -0.103390        -1.112024
 H         2.182615         0.727795        -1.949465
 H         1.845157         2.045861        -0.915308
 H         4.090277         2.023025        -0.373978
 H         4.193426        -0.402811        -2.090916
 H         5.302255        -0.299104        -0.791536
 H         3.732242        -2.130936         0.493412
 H         3.986395         0.371824         1.872251
