19
Iteration:  3249
 C        -0.076150        -0.048567        -0.134810
 C         1.461982         0.114026         0.026410
 C         2.243628         1.209668        -0.879328
 C         3.650666         0.963902        -0.364556
 C         4.132055        -0.359584        -0.960062
 C         3.319571        -1.108598         0.140440
 O         2.020470        -1.284708        -0.246432
 C         3.398494         0.215757         0.949607
 O         1.990747         0.360109         1.331928
 H        -0.439746        -1.087275         0.195837
 H        -0.731979         0.551251         0.468499
 H        -0.197573        -0.145343        -1.217927
 H         2.222956         1.157862        -1.954925
 H         1.937987         2.096855        -0.424492
 H         4.144283         1.944131        -0.192675
 H         3.893276        -0.509712        -2.077079
 H         5.260729        -0.600866        -0.811950
 H         3.911475        -2.059028         0.467296
 H         3.977437         0.433627         1.934132
