19
Iteration:   731charge 0 multiplicity 1
 C        -0.133229        -0.153669         0.067445
 C         1.398394         0.044669        -0.020725
 C         2.268799         1.058408        -0.894668
 C         3.742651         0.967909        -0.431587
 C         4.281526        -0.427861        -0.914218
 C         3.378655        -1.036662         0.153485
 O         1.982960        -1.194993        -0.406650
 C         3.334312         0.292416         1.045267
 O         1.956207         0.478308         1.261007
 H        -0.503916        -0.990471         0.601027
 H        -0.438195         0.727419         0.769857
 H        -0.502416        -0.175097        -0.928598
 H         2.160141         1.013163        -1.909472
 H         1.766241         1.948551        -0.534084
 H         4.300919         1.791943        -0.661062
 H         3.988777        -0.726956        -1.954987
 H         5.333437        -0.584201        -0.768832
 H         3.589320        -1.998082         0.708153
 H         3.749712         0.351380         2.025179
