19
Iteration:   905
 C        -0.075826         0.086571        -0.129457
 C         1.461917        -0.045479        -0.044341
 C         2.189596         0.977686        -0.910267
 C         3.613513         0.997561        -0.407237
 C         4.155901        -0.322630        -0.946667
 C         3.420363        -1.066764         0.193839
 O         2.040319        -1.319724        -0.189782
 C         3.369530         0.251983         1.080575
 O         1.996220         0.394813         1.274203
 H        -0.586114        -0.684998         0.320290
 H        -0.345580         1.139702         0.294482
 H        -0.444312         0.196411        -1.163295
 H         2.146078         0.993653        -1.953299
 H         1.628685         1.928809        -0.606778
 H         4.096954         1.895554        -0.597989
 H         3.760712        -0.648536        -1.944949
 H         5.215451        -0.340845        -1.023312
 H         3.995819        -1.981973         0.489597
 H         4.052619         0.571755         1.889030
