19
Iteration:  4739
 C         0.005112        -0.062197        -0.142001
 C         1.440537         0.133356         0.111776
 C         2.165349         1.160758        -0.867726
 C         3.550474         1.000310        -0.367996
 C         4.241132        -0.387723        -0.969937
 C         3.351982        -1.160378         0.105240
 O         2.033341        -1.240079        -0.285420
 C         3.376186         0.202590         0.925867
 O         1.961756         0.393168         1.388164
 H        -0.564913        -0.876584         0.345930
 H        -0.437956         0.835919         0.353460
 H        -0.024401        -0.158946        -1.291667
 H         1.871621         0.884530        -1.905388
 H         1.820738         2.179145        -0.527642
 H         4.367294         1.755762        -0.463184
 H         4.083346        -0.678381        -2.071696
 H         5.221945        -0.349213        -0.746806
 H         3.742182        -2.137214         0.498423
 H         4.148617         0.283576         1.712696
