19
Iteration:  1288charge 0 multiplicity 1
 C        -0.016993         0.017027        -0.077386
 C         1.516796         0.091654         0.073973
 C         2.130577         1.051861        -0.885576
 C         3.640252         0.965915        -0.362327
 C         4.277186        -0.342073        -0.932671
 C         3.397115        -1.104707         0.087193
 O         1.961995        -1.249666        -0.339062
 C         3.334443         0.249861         0.945095
 O         1.978785         0.364316         1.374108
 H        -0.594329        -0.896991         0.309689
 H        -0.497815         0.789406         0.421481
 H        -0.177104         0.185415        -1.140386
 H         1.911176         0.750550        -1.892631
 H         1.757906         1.997502        -0.666833
 H         4.078958         1.943837        -0.338266
 H         3.951093        -0.718242        -1.894885
 H         5.337218        -0.450429        -0.666278
 H         3.633800        -2.146057         0.368907
 H         3.918986         0.383481         1.845476
