19
Iteration:  1005charge 0 multiplicity 1
 C        -0.046374         0.019809        -0.022918
 C         1.483476         0.006680        -0.016463
 C         2.177917         1.082153        -0.894734
 C         3.596926         1.021934        -0.355692
 C         4.272320        -0.354219        -0.889001
 C         3.393460        -1.111775         0.155057
 O         1.997232        -1.264072        -0.361846
 C         3.332199         0.246709         0.947618
 O         1.965933         0.400763         1.302433
 H        -0.400233        -0.439473         0.981355
 H        -0.522962         0.990819         0.051189
 H        -0.643193        -0.495324        -0.844184
 H         2.213353         0.755403        -2.002840
 H         1.704181         2.087834        -0.875105
 H         4.229516         1.821755        -0.290534
 H         4.053591        -0.821721        -1.852559
 H         5.329634        -0.475845        -0.632632
 H         3.738812        -2.156806         0.573795
 H         4.089455         0.439388         1.836696
