19
Iteration:  1693charge 0 multiplicity 1
 C        -0.042982        -0.074884         0.047940
 C         1.435128         0.125281         0.004443
 C         2.238683         1.171599        -0.920839
 C         3.669517         0.926868        -0.394664
 C         4.243149        -0.454295        -0.930217
 C         3.351869        -1.130193         0.139251
 O         2.060094        -1.239546        -0.286395
 C         3.300808         0.248554         0.927190
 O         1.887331         0.437650         1.280024
 H        -0.153099        -0.969079         0.579243
 H        -0.365651         0.768405         0.724828
 H        -0.452704        -0.304447        -0.960134
 H         2.011676         0.874758        -2.070876
 H         1.821142         2.234283        -0.862084
 H         4.300388         1.748497        -0.348655
 H         4.061247        -0.412368        -1.987454
 H         5.381337        -0.320292        -0.854406
 H         3.703664        -2.053711         0.602182
 H         3.897881         0.337270         1.885474
