19
Iteration:  1883charge 0 multiplicity 1
 C        -0.069058         0.015284        -0.156254
 C         1.451007         0.069406         0.026569
 C         2.198818         0.985790        -0.881835
 C         3.619969         0.972253        -0.418594
 C         4.121262        -0.304882        -0.933081
 C         3.451300        -1.085843         0.127939
 O         1.996492        -1.330844        -0.176289
 C         3.371160         0.234336         0.979073
 O         2.010905         0.441885         1.325464
 H        -0.469899        -0.929950         0.323897
 H        -0.486308         0.943285         0.271955
 H        -0.245933        -0.096960        -1.213382
 H         2.218514         0.981017        -1.986860
 H         1.788608         2.004295        -0.553420
 H         4.019381         1.971635        -0.616943
 H         3.912149        -0.465782        -2.049595
 H         5.183788        -0.356693        -0.716127
 H         3.875574        -2.064637         0.502847
 H         4.074289         0.424250         1.817331
