19
Iteration:  3189charge 0 multiplicity 1
 C        -0.115086         0.092787         0.053661
 C         1.415983         0.047646         0.074481
 C         2.168731         1.112348        -0.900011
 C         3.645615         0.956183        -0.450617
 C         4.367605        -0.321128        -0.825837
 C         3.441887        -1.107436         0.078209
 O         1.975081        -1.243908        -0.411780
 C         3.342114         0.198726         0.948521
 O         1.952426         0.291450         1.345285
 H        -0.405180        -0.751718         0.569997
 H        -0.569951         1.052963         0.314023
 H        -0.448269         0.090102        -0.973802
 H         2.051610         0.775623        -1.976032
 H         1.443933         2.020553        -1.003441
 H         4.102787         1.932661        -0.414454
 H         4.472836        -0.651542        -1.838342
 H         5.292981        -0.368052        -0.303497
 H         3.797422        -2.078519         0.235563
 H         3.941686         0.290746         1.797681
