19
Iteration:  2379
 C        -0.106602         0.015539         0.066720
 C         1.405507         0.054192        -0.003381
 C         2.157253         1.133798        -0.907955
 C         3.614415         0.966251        -0.422068
 C         4.281748        -0.351020        -0.907399
 C         3.523014        -1.153006         0.149934
 O         2.029888        -1.255230        -0.341059
 C         3.367058         0.210133         0.945074
 O         1.895357         0.355691         1.280977
 H        -0.484293        -0.582826         0.862761
 H        -0.528407         1.019408         0.226371
 H        -0.468798        -0.456320        -0.831697
 H         2.089454         1.240329        -2.056092
 H         1.986950         2.258526        -0.692196
 H         4.265749         1.905935        -0.386721
 H         4.206559        -0.615220        -1.950137
 H         5.396132        -0.391648        -0.555456
 H         3.672828        -2.123114         0.535460
 H         3.870996         0.447931         1.838580
