19
Iteration:  3121charge 0 multiplicity 1
 C        -0.056647        -0.072213        -0.141345
 C         1.484318         0.101474        -0.040718
 C         2.196635         1.194195        -0.761441
 C         3.628808         0.928260        -0.368816
 C         4.174818        -0.377994        -0.997924
 C         3.438761        -1.162791         0.147342
 O         1.976862        -1.165549        -0.294619
 C         3.379129         0.130133         0.988766
 O         1.951975         0.405306         1.351824
 H        -0.254253        -0.799033         0.643002
 H        -0.720200         0.751906        -0.274171
 H        -0.349795        -0.603052        -1.059979
 H         1.977121         1.208423        -1.834093
 H         1.992866         2.261720        -0.431976
 H         4.417604         1.631832        -0.296645
 H         3.869549        -0.506472        -1.981270
 H         5.255622        -0.398609        -0.856048
 H         3.688244        -2.066655         0.581337
 H         4.032530         0.618399         1.771715
