19
Iteration:  4524charge 0 multiplicity 1
 C        -0.036070        -0.037155         0.038237
 C         1.425306         0.086507        -0.085758
 C         2.181998         1.167173        -0.974770
 C         3.688283         0.931120        -0.369535
 C         4.274386        -0.318252        -0.919568
 C         3.401342        -1.165398         0.187146
 O         2.026439        -1.282570        -0.378663
 C         3.243702         0.228780         0.995318
 O         1.952565         0.415203         1.360899
 H        -0.091330        -0.757829         0.810741
 H        -0.321502         0.902340         0.528442
 H        -0.637018        -0.195171        -0.872110
 H         2.171393         0.913038        -2.086452
 H         1.661158         2.050734        -0.676437
 H         4.335195         1.821636        -0.493555
 H         3.987673        -0.432111        -1.922204
 H         5.404494        -0.364433        -0.715352
 H         3.560504        -2.233964         0.427668
 H         3.839305         0.286839         1.912468
