19
Iteration:  3235charge 0 multiplicity 1
 C        -0.057155        -0.122389        -0.093356
 C         1.444569         0.126433        -0.025767
 C         2.247519         1.231556        -0.786547
 C         3.689868         0.954349        -0.331087
 C         4.153324        -0.367993        -1.012812
 C         3.420695        -1.177438         0.086377
 O         2.028077        -1.301822        -0.262656
 C         3.298807         0.220980         1.065413
 O         1.937442         0.456981         1.273434
 H        -0.162346        -1.103436         0.317469
 H        -0.492971         0.669554         0.472351
 H        -0.506401         0.092322        -1.023228
 H         2.043194         1.154424        -1.915339
 H         1.871366         2.293736        -0.641650
 H         4.511881         1.704308        -0.500255
 H         3.786379        -0.554044        -2.087042
 H         5.211702        -0.479298        -1.017283
 H         3.678189        -2.170089         0.572001
 H         3.960346         0.351085         1.911936
