19
Iteration:   647
 C        -0.000386         0.004620        -0.090064
 C         1.456999         0.083701         0.032368
 C         2.185846         1.150184        -0.924906
 C         3.598324         0.981556        -0.403993
 C         4.092784        -0.343005        -0.901301
 C         3.448966        -1.136740         0.150411
 O         2.053429        -1.247227        -0.194725
 C         3.353205         0.169302         1.013135
 O         1.971366         0.355944         1.253539
 H        -0.341968        -0.542762         0.701699
 H        -0.387276         1.063991        -0.197604
 H        -0.251199        -0.395861        -1.091459
 H         1.945727         0.925285        -2.028948
 H         1.599698         2.030904        -0.595874
 H         4.355814         1.794112        -0.769815
 H         3.740146        -0.447314        -1.961516
 H         5.171927        -0.542528        -0.834732
 H         4.007295        -2.014362         0.502628
 H         3.857720         0.298552         1.918705
