19
Iteration:  4718charge 0 multiplicity 1
 C        -0.088826         0.064814        -0.045120
 C         1.440974         0.037919        -0.023395
 C         2.128610         1.086706        -0.878413
 C         3.635005         0.953128        -0.375063
 C         4.252547        -0.355612        -0.968177
 C         3.437733        -1.068134         0.148095
 O         2.027403        -1.188865        -0.288061
 C         3.318158         0.185025         1.031012
 O         1.982494         0.319193         1.305103
 H        -0.344888        -0.794295         0.583406
 H        -0.501572         0.977450         0.389760
 H        -0.311509        -0.316039        -1.080198
 H         2.082039         0.957761        -1.989934
 H         1.769911         2.109234        -0.584222
 H         4.333829         1.817176        -0.569154
 H         4.031918        -0.654232        -2.027340
 H         5.250962        -0.467967        -0.876128
 H         3.854522        -2.071588         0.345886
 H         3.906631         0.338259         1.955712
