19
Iteration:  2796
 C        -0.080841         0.027970         0.003123
 C         1.438762         0.059958        -0.037906
 C         2.227080         1.108044        -0.943138
 C         3.635178         0.948671        -0.392180
 C         4.280792        -0.371338        -0.905559
 C         3.430403        -1.093392         0.122543
 O         2.035127        -1.228286        -0.258509
 C         3.345415         0.232563         0.993696
 O         1.914146         0.340869         1.271304
 H        -0.453535        -0.775046         0.731937
 H        -0.390355         1.010383         0.314347
 H        -0.656092        -0.131531        -0.933039
 H         2.004205         0.780582        -1.974963
 H         1.682917         2.055652        -0.727519
 H         4.243451         1.846941        -0.334196
 H         3.944030        -0.604878        -1.943514
 H         5.311045        -0.488863        -0.799255
 H         3.761356        -2.109552         0.458266
 H         3.768891         0.490893         1.999396
