19
Iteration:  3474
 C        -0.065851        -0.047942         0.061834
 C         1.407116         0.127406        -0.017618
 C         2.188845         1.159111        -0.880141
 C         3.627119         0.940802        -0.473341
 C         4.325586        -0.475066        -0.873324
 C         3.399453        -1.080990         0.134716
 O         2.084739        -1.237253        -0.378608
 C         3.290981         0.233803         1.001896
 O         1.906584         0.394464         1.259452
 H        -0.187545        -0.909486         0.842896
 H        -0.466560         0.941654         0.271577
 H        -0.538450        -0.328464        -0.906172
 H         1.891453         1.187616        -1.954656
 H         1.865418         2.116964        -0.426718
 H         4.250841         1.839552        -0.329074
 H         4.003231        -0.867528        -1.880606
 H         5.448177        -0.386012        -0.662641
 H         3.613838        -1.999703         0.653284
 H         3.901833         0.431196         1.926285
