19
Iteration:  2112charge 0 multiplicity 1
 C        -0.051126         0.077839        -0.026050
 C         1.430034        -0.026341        -0.012366
 C         2.170276         1.121125        -0.937414
 C         3.581065         0.943962        -0.418594
 C         4.217159        -0.324297        -0.938979
 C         3.440908        -1.106672         0.122087
 O         2.088007        -1.268279        -0.273365
 C         3.369383         0.215159         1.056198
 O         1.933393         0.372177         1.296331
 H        -0.445652        -0.480277         0.815351
 H        -0.245907         1.190386         0.071113
 H        -0.515722        -0.200808        -1.038037
 H         2.040726         0.979957        -2.043708
 H         1.539566         2.026380        -0.564255
 H         4.224931         1.765170        -0.436241
 H         3.994024        -0.516855        -2.067728
 H         5.249209        -0.425150        -0.592951
 H         3.709038        -2.182771         0.472946
 H         3.939862         0.195845         1.962250
