19
Iteration:  4332charge 0 multiplicity 1
 C        -0.078988        -0.026698        -0.100928
 C         1.504938         0.029992        -0.023442
 C         2.221593         1.151327        -0.838463
 C         3.679914         1.027435        -0.305437
 C         4.174515        -0.384004        -0.951337
 C         3.376968        -1.105123         0.083711
 O         1.986548        -1.330551        -0.194220
 C         3.303377         0.234156         0.936407
 O         1.988364         0.424505         1.284425
 H        -0.456733        -0.858833         0.515129
 H        -0.458419         0.981033         0.178873
 H        -0.207065        -0.211495        -1.145348
 H         2.139973         0.932381        -1.899443
 H         1.722453         2.140581        -0.547333
 H         4.298794         1.895610        -0.325632
 H         3.713770        -0.386595        -2.064453
 H         5.266235        -0.559072        -0.876316
 H         3.886343        -1.984565         0.416275
 H         4.029301         0.247182         1.788409
