19
Iteration:  2237
 C        -0.087343         0.111791         0.036199
 C         1.368692         0.038652         0.020288
 C         2.222495         1.024302        -0.920987
 C         3.626340         1.031461        -0.365773
 C         4.279484        -0.267534        -0.886659
 C         3.398608        -1.145783         0.025825
 O         2.013816        -1.317636        -0.262620
 C         3.366046         0.151285         0.943981
 O         1.944485         0.409423         1.261118
 H        -0.392105        -0.890814         0.434810
 H        -0.454980         0.918335         0.641337
 H        -0.433746        -0.002291        -0.947891
 H         2.134239         0.716906        -2.002373
 H         1.617411         1.940260        -0.941762
 H         4.214880         2.040799        -0.279699
 H         4.398230        -0.703189        -1.869623
 H         5.315225        -0.231548        -0.360160
 H         3.895338        -2.067501         0.311992
 H         3.999122         0.306027         1.885292
