19
Iteration:  3029charge 0 multiplicity 1
 C        -0.092371         0.041117         0.070626
 C         1.401767         0.023999        -0.055281
 C         2.224508         1.123006        -0.988695
 C         3.659261         0.900112        -0.373716
 C         4.311839        -0.292894        -0.840300
 C         3.406114        -1.095800         0.058743
 O         1.984211        -1.226251        -0.341707
 C         3.310757         0.186567         1.036719
 O         1.961667         0.331386         1.301756
 H        -0.324857        -0.900867         0.553305
 H        -0.301922         1.067161         0.500982
 H        -0.577664         0.092369        -0.924475
 H         1.990888         0.838387        -2.023488
 H         1.786291         2.048171        -0.834829
 H         4.015338         1.959833        -0.492512
 H         4.359196        -0.390015        -1.900345
 H         5.270635        -0.420311        -0.344496
 H         3.669881        -2.149462         0.512678
 H         4.036377         0.361786         1.777372
