19
Iteration:  1363
 C        -0.112354         0.076887        -0.016528
 C         1.457665         0.047135        -0.006069
 C         2.118277         1.131748        -0.926078
 C         3.581207         0.933167        -0.327124
 C         4.306315        -0.313876        -0.900277
 C         3.483260        -1.168454         0.095489
 O         2.009503        -1.187970        -0.315653
 C         3.333334         0.134705         0.991347
 O         1.995426         0.348592         1.311706
 H        -0.417466        -0.647476         0.904087
 H        -0.569608         1.062445        -0.020984
 H        -0.425427        -0.531873        -0.908678
 H         2.011299         0.817680        -1.936549
 H         1.856244         2.200904        -0.842323
 H         4.039691         1.932476        -0.359311
 H         4.130246        -0.472893        -1.999918
 H         5.385131        -0.483317        -0.715717
 H         3.554982        -2.181322         0.351903
 H         4.067243         0.463414         1.748424
