19
Iteration:   182charge 0 multiplicity 1
 C        -0.109971        -0.024373         0.086807
 C         1.416801        -0.003692         0.008495
 C         2.133734         0.996343        -0.952033
 C         3.619638         0.918510        -0.428110
 C         4.411597        -0.334387        -0.876239
 C         3.445223        -1.063761         0.094375
 O         1.946746        -1.254630        -0.340853
 C         3.363080         0.234082         0.977741
 O         1.950524         0.496340         1.284905
 H        -0.527563        -0.675496         0.853368
 H        -0.210401         1.100415         0.410346
 H        -0.634790        -0.167233        -0.871122
 H         1.966488         0.748679        -2.042007
 H         1.785385         2.037989        -0.741014
 H         3.951073         1.978875        -0.587784
 H         4.482758        -0.683217        -1.917288
 H         5.506431        -0.310336        -0.496765
 H         3.710371        -2.133241         0.612336
 H         3.972134         0.389607         1.823020
