19
Iteration:  4029
 C        -0.092827         0.029104        -0.006637
 C         1.449096         0.095756        -0.027574
 C         2.093806         1.130115        -0.867725
 C         3.578175         0.943112        -0.365627
 C         4.281357        -0.314296        -0.918750
 C         3.401643        -1.133165         0.126029
 O         2.060865        -1.266320        -0.331929
 C         3.345961         0.162869         0.963698
 O         2.008928         0.367137         1.277039
 H        -0.549793        -0.609848         0.687426
 H        -0.450672         0.938354         0.462350
 H        -0.525722        -0.180767        -0.995210
 H         1.969201         0.890878        -1.886073
 H         1.872262         2.068340        -0.574847
 H         4.301801         1.765898        -0.373522
 H         4.248049        -0.535555        -1.977302
 H         5.351964        -0.434285        -0.439388
 H         3.790196        -2.098210         0.359144
 H         3.912058         0.444409         1.854536
