19
Iteration:   153
 C        -0.076919        -0.076439         0.167180
 C         1.429379         0.138497        -0.053287
 C         2.184953         1.159036        -1.087665
 C         3.622602         0.992787        -0.463516
 C         4.219472        -0.432981        -0.832608
 C         3.437275        -1.110666         0.242137
 O         2.078045        -1.202692        -0.376218
 C         3.357893         0.195827         1.016589
 O         1.923834         0.386484         1.257272
 H        -0.166991        -0.999485         0.838681
 H        -0.456199         0.730730         0.661748
 H        -0.690676        -0.165207        -0.774522
 H         2.035758         0.815418        -2.104424
 H         1.766298         2.161023        -1.128910
 H         4.183685         1.877305        -0.585403
 H         4.043529        -0.910595        -1.782371
 H         5.271148        -0.418569        -0.677068
 H         3.727564        -1.958052         0.695938
 H         3.883777         0.364781         1.972408
