19
Iteration:  1944charge 0 multiplicity 1
 C         0.009351        -0.104458         0.153479
 C         1.412262         0.045486        -0.060470
 C         2.131553         1.086862        -0.943215
 C         3.676279         1.013101        -0.384680
 C         4.311812        -0.409310        -0.860561
 C         3.393519        -1.116473         0.172946
 O         1.993265        -1.189535        -0.416972
 C         3.308669         0.206360         0.948218
 O         1.901863         0.441241         1.243783
 H        -0.295526        -0.412541         1.173872
 H        -0.395391         0.866626         0.067468
 H        -0.584851        -0.469670        -0.648282
 H         2.206645         0.994339        -2.042497
 H         1.849326         2.053594        -0.654428
 H         4.323320         1.915544        -0.330674
 H         4.203959        -0.645645        -1.878097
 H         5.401455        -0.558485        -0.552131
 H         3.824054        -1.987342         0.570248
 H         3.939673         0.384687         1.832068
