19
Iteration:  4894
 C        -0.077709        -0.051277        -0.136451
 C         1.408370         0.076897        -0.038716
 C         2.186499         1.160236        -0.868097
 C         3.584979         0.922663        -0.361806
 C         4.196192        -0.340418        -0.963247
 C         3.392993        -1.090131         0.133760
 O         2.015139        -1.229300        -0.267132
 C         3.367611         0.216492         0.996217
 O         2.049230         0.344073         1.348943
 H        -0.334389        -0.794857         0.612944
 H        -0.475491         0.930723         0.150159
 H        -0.388135        -0.198673        -1.173218
 H         2.175637         1.238428        -1.977890
 H         1.868983         2.097200        -0.470601
 H         4.193279         1.815821        -0.210297
 H         3.993743        -0.733001        -2.018168
 H         5.190368        -0.506886        -0.696562
 H         3.785725        -2.028025         0.537132
 H         3.975186         0.433775         1.882863
