19
Iteration:  1240
 C        -0.061769         0.085755         0.089158
 C         1.464726         0.036102        -0.062116
 C         2.152955         1.072386        -0.896323
 C         3.576719         0.917188        -0.354059
 C         4.348074        -0.357978        -0.912178
 C         3.415627        -1.126365         0.116742
 O         2.021982        -1.283023        -0.379342
 C         3.310504         0.197034         0.972885
 O         1.920968         0.408398         1.256714
 H        -0.275356        -0.657194         0.823160
 H        -0.389398         1.090594         0.571760
 H        -0.579359        -0.184266        -0.861012
 H         2.353754         0.940608        -1.908142
 H         1.667811         2.058316        -0.707362
 H         4.204565         1.858489        -0.286996
 H         4.263111        -0.246075        -1.994351
 H         5.345834        -0.366678        -0.544328
 H         3.735817        -1.997925         0.556511
 H         3.823055         0.428515         1.938998
