19
Iteration:  3347charge 0 multiplicity 1
 C        -0.120104        -0.101451        -0.044881
 C         1.411551         0.142542         0.056449
 C         2.176924         1.181252        -0.894860
 C         3.652448         0.949071        -0.313215
 C         4.294576        -0.346526        -0.933249
 C         3.331428        -1.155128         0.151139
 O         2.021014        -1.208726        -0.367073
 C         3.405643         0.161556         0.953538
 O         1.991630         0.436811         1.289672
 H        -0.427770        -0.635558         0.845597
 H        -0.707139         0.762241         0.014930
 H        -0.243396        -0.686556        -0.953261
 H         1.922253         0.854626        -1.935995
 H         1.666910         2.153146        -0.803621
 H         4.201853         1.887306        -0.272989
 H         4.204694        -0.738083        -1.944218
 H         5.393273        -0.439855        -0.806966
 H         3.541722        -2.174833         0.678602
 H         4.139051         0.225852         1.800274
