19
Iteration:  4797charge 0 multiplicity 1
 C        -0.084112         0.005539         0.040956
 C         1.466275         0.073251        -0.042468
 C         2.191362         1.131326        -0.899269
 C         3.599416         1.024514        -0.353942
 C         4.215226        -0.350249        -0.892683
 C         3.401361        -1.120404         0.136078
 O         2.053493        -1.259281        -0.358489
 C         3.313777         0.181054         1.050818
 O         1.992005         0.337598         1.235513
 H        -0.342383        -0.754644         0.773079
 H        -0.319432         1.057056         0.214695
 H        -0.595301        -0.133148        -0.946316
 H         1.908008         0.750935        -1.945800
 H         1.830147         2.140750        -0.850953
 H         4.267811         1.902204        -0.409419
 H         4.046541        -0.636307        -1.889975
 H         5.221904        -0.370859        -0.683980
 H         3.815876        -2.111394         0.380649
 H         3.922586         0.385997         1.934410
