19
Iteration:   139charge 0 multiplicity 1
 C        -0.011250        -0.134164         0.034247
 C         1.454938         0.032648        -0.113987
 C         2.167669         1.183448        -0.998322
 C         3.587571         0.919834        -0.487023
 C         4.248609        -0.412028        -0.902136
 C         3.390111        -1.045827         0.224419
 O         1.955453        -1.172744        -0.230761
 C         3.300885         0.281371         1.009671
 O         2.025254         0.380399         1.297018
 H        -0.252291        -1.006038         0.623277
 H        -0.308814         0.816237         0.646289
 H        -0.549089        -0.202944        -0.914553
 H         2.250098         0.888213        -2.085851
 H         1.879958         2.224342        -0.753323
 H         4.326222         1.770666        -0.491893
 H         4.056836        -0.731327        -1.931801
 H         5.384343        -0.442748        -0.710226
 H         3.562526        -2.137508         0.682228
 H         4.014627         0.425578         1.757030
