19
Iteration:  4475
 C        -0.050876        -0.005724        -0.173259
 C         1.413304         0.076224         0.082011
 C         2.229569         1.168162        -0.861224
 C         3.572313         0.981108        -0.488224
 C         4.252379        -0.330556        -0.946097
 C         3.455905        -1.088204         0.134309
 O         1.957475        -1.317990        -0.266120
 C         3.377065         0.151369         0.981986
 O         1.969848         0.398071         1.411916
 H        -0.605021        -0.572207         0.584743
 H        -0.331657         1.038908        -0.166727
 H         0.020110        -0.301629        -1.162065
 H         1.906745         1.061417        -1.821722
 H         1.682489         1.919323        -0.340367
 H         4.077367         1.931197        -0.582742
 H         3.984785        -0.732690        -2.010762
 H         5.262534        -0.368933        -0.625909
 H         3.651303        -2.059822         0.448147
 H         4.238960         0.199451         1.681296
