19
Iteration:  1439charge 0 multiplicity 1
 C        -0.080542        -0.093438        -0.063645
 C         1.419293         0.139201         0.001877
 C         2.219292         1.150862        -0.850968
 C         3.713721         0.923556        -0.420149
 C         4.192217        -0.397775        -0.958292
 C         3.432016        -1.124104         0.125455
 O         2.002508        -1.227523        -0.309205
 C         3.306963         0.261356         1.045568
 O         1.951700         0.393536         1.333275
 H        -0.196070        -1.054041         0.580971
 H        -0.531362         0.815802         0.249817
 H        -0.382053        -0.277877        -1.092976
 H         2.131609         1.167451        -1.930756
 H         1.785350         2.166389        -0.498985
 H         4.373562         1.812898        -0.409686
 H         3.963269        -0.688775        -2.001739
 H         5.266659        -0.371120        -1.010155
 H         3.574295        -2.125016         0.413890
 H         4.032064         0.410154         1.844216
