19
Iteration:  2963
 C        -0.021551        -0.023657        -0.100760
 C         1.480572         0.146759        -0.038520
 C         2.182577         1.210469        -0.841124
 C         3.687245         0.973932        -0.302812
 C         4.179678        -0.346164        -1.044765
 C         3.421916        -1.086453         0.156352
 O         1.990333        -1.340359        -0.163120
 C         3.326806         0.186893         0.958542
 O         1.919158         0.335283         1.250605
 H        -0.323411        -0.738234         0.647148
 H        -0.489585         1.045161        -0.126355
 H        -0.353925        -0.541231        -1.019150
 H         2.163165         1.157239        -1.955763
 H         1.871830         2.222681        -0.430738
 H         4.357219         1.886094        -0.220745
 H         3.813108        -0.470903        -2.050094
 H         5.210072        -0.633074        -1.069178
 H         4.000525        -2.038067         0.572646
 H         3.831296         0.273470         1.897607
