19
Iteration:  4668charge 0 multiplicity 1
 C        -0.125027        -0.048795         0.031663
 C         1.451648         0.051388         0.020323
 C         2.166901         1.103190        -0.939750
 C         3.630397         0.951405        -0.412146
 C         4.318437        -0.316004        -0.885473
 C         3.354270        -1.145178         0.066803
 O         2.011022        -1.117290        -0.330127
 C         3.346287         0.157665         1.010817
 O         1.949397         0.352086         1.285190
 H        -0.404347        -0.552257         0.938672
 H        -0.272732         0.981256         0.281287
 H        -0.503837        -0.503217        -0.849523
 H         2.183621         0.762543        -1.983195
 H         1.985727         2.127970        -0.813078
 H         4.063075         1.929008        -0.399317
 H         4.395307        -0.506051        -1.930345
 H         5.460945        -0.447585        -0.428762
 H         3.778858        -2.097832         0.352530
 H         3.947648         0.333171         1.924037
