19
Iteration:  4460charge 0 multiplicity 1
 C        -0.022664         0.053666        -0.153307
 C         1.463875         0.049540         0.029484
 C         2.067091         1.165806        -0.795530
 C         3.601410         0.932220        -0.399977
 C         4.220947        -0.380456        -0.962406
 C         3.395340        -1.149828         0.090932
 O         2.056827        -1.234545        -0.211706
 C         3.344278         0.217330         0.957992
 O         2.003751         0.344249         1.308748
 H        -0.574603        -0.569101         0.598257
 H        -0.496217         1.089783        -0.110890
 H        -0.215556        -0.484648        -1.166581
 H         1.900324         1.040321        -1.945685
 H         1.816023         2.205621        -0.560561
 H         4.261212         1.804522        -0.369504
 H         4.142976        -0.618338        -1.952703
 H         5.296816        -0.388181        -0.664278
 H         3.845622        -2.065345         0.619263
 H         3.933331         0.393990         1.881381
