19
Iteration:  1181charge 0 multiplicity 1
 C         0.006395        -0.041189        -0.137207
 C         1.477128         0.022073         0.037988
 C         2.193179         1.149561        -0.794267
 C         3.644598         0.940593        -0.422942
 C         4.158486        -0.362994        -0.924004
 C         3.384215        -1.077734         0.133163
 O         2.005564        -1.237294        -0.276859
 C         3.353538         0.189356         0.949228
 O         1.974568         0.445158         1.339219
 H        -0.469054        -0.693481         0.669472
 H        -0.572759         0.839238        -0.244401
 H        -0.260844        -0.532557        -1.047511
 H         2.117673         1.197446        -1.986135
 H         1.670716         2.012435        -0.347566
 H         4.196429         1.845484        -0.394557
 H         3.782919        -0.527473        -1.933373
 H         5.278673        -0.593636        -1.032615
 H         3.667401        -2.147514         0.530197
 H         4.020938         0.268151         1.774732
