19
Iteration:  1805
 C        -0.088590        -0.108395         0.060235
 C         1.434008         0.138427        -0.005607
 C         2.192289         1.068676        -0.963698
 C         3.629619         0.903456        -0.466067
 C         4.370735        -0.415786        -0.854022
 C         3.360296        -1.084661         0.097308
 O         2.004126        -1.128261        -0.320038
 C         3.279986         0.190843         0.998532
 O         1.955201         0.428964         1.282580
 H        -0.033475        -0.658959         1.072493
 H        -0.642094         0.734758         0.371643
 H        -0.525012        -0.590796        -0.792683
 H         2.049413         0.859842        -2.086453
 H         1.879016         2.154435        -0.776742
 H         4.223966         1.741455        -0.360970
 H         4.410622        -0.620008        -1.906634
 H         5.287081        -0.233611        -0.307551
 H         3.474896        -2.142564         0.386905
 H         4.104973         0.464487         1.678131
