19
Iteration:  3781charge 0 multiplicity 1
 C        -0.112003         0.007047        -0.135038
 C         1.500785         0.083320         0.072311
 C         2.139894         1.024750        -0.866768
 C         3.643009         0.978306        -0.383414
 C         4.217140        -0.299988        -0.988690
 C         3.391475        -1.104347         0.111459
 O         1.998517        -1.227758        -0.199695
 C         3.402059         0.220896         1.019547
 O         1.990867         0.334153         1.314375
 H        -0.367707        -0.996891         0.274565
 H        -0.660215         1.001572         0.204563
 H        -0.302977         0.007079        -1.320649
 H         2.235046         0.782809        -1.922414
 H         1.681773         2.018506        -0.956804
 H         4.109469         1.945046        -0.386895
 H         3.978978        -0.477393        -2.134773
 H         5.292047        -0.312705        -0.671729
 H         3.661964        -2.166680         0.331721
 H         4.076058         0.401170         1.889751
