19
Iteration:  2654charge 0 multiplicity 1
 C        -0.050729        -0.062868         0.003314
 C         1.411136         0.110345        -0.037049
 C         2.134944         1.099356        -0.952440
 C         3.603149         0.913351        -0.505601
 C         4.293537        -0.435731        -0.832786
 C         3.454418        -1.125724         0.137068
 O         2.021522        -1.118784        -0.313375
 C         3.290405         0.175082         1.012312
 O         1.985607         0.423183         1.337605
 H        -0.209350        -1.035908         0.465310
 H        -0.500516         0.697203         0.570007
 H        -0.563734        -0.055823        -0.960080
 H         1.953822         0.894067        -2.041109
 H         1.730369         2.127192        -0.661587
 H         4.208582         1.807810        -0.470505
 H         4.195761        -0.605722        -1.914024
 H         5.319957        -0.264258        -0.632054
 H         3.749249        -2.042970         0.675211
 H         4.080812         0.352190         1.766596
