19
Iteration:  2500charge 0 multiplicity 1
 C        -0.117780        -0.059178         0.112457
 C         1.392327         0.114944         0.025374
 C         2.202225         1.030656        -0.967614
 C         3.676546         0.915856        -0.316126
 C         4.340516        -0.282070        -0.945255
 C         3.361087        -1.131172         0.097545
 O         2.004715        -1.181154        -0.354162
 C         3.302778         0.214790         0.976676
 O         1.977928         0.416766         1.279784
 H        -0.242222        -0.717434         0.910456
 H        -0.545355         0.912949         0.412717
 H        -0.288471        -0.493275        -0.884812
 H         2.120424         0.557597        -2.031964
 H         1.683604         2.039610        -1.271618
 H         4.128486         1.940416        -0.544224
 H         4.303642        -0.476940        -2.017700
 H         5.379377        -0.513610        -0.548620
 H         3.723616        -2.060691         0.540833
 H         3.842203         0.227742         1.912333
