19
Iteration:  1474
 C        -0.057631         0.003529        -0.161625
 C         1.478536         0.112251         0.080770
 C         2.103307         1.161628        -0.890825
 C         3.602410         0.974697        -0.381307
 C         4.234784        -0.380547        -0.949738
 C         3.417763        -1.178402         0.114833
 O         2.014716        -1.254036        -0.260067
 C         3.347224         0.168906         0.975115
 O         2.027479         0.410977         1.357152
 H        -0.345942        -1.045745         0.340105
 H        -0.766745         0.669402         0.417908
 H        -0.283248        -0.031133        -1.228946
 H         1.954908         0.996904        -2.010234
 H         1.935242         2.153828        -0.602948
 H         4.313151         1.736844        -0.578415
 H         3.997713        -0.738425        -1.925429
 H         5.281000        -0.095092        -0.720607
 H         3.619068        -2.181839         0.547872
 H         3.827913         0.506476         1.849987
