19
Iteration:  4635charge 0 multiplicity 1
 C         0.003615        -0.042196        -0.105293
 C         1.416444         0.088376         0.057856
 C         2.128298         1.140868        -0.822402
 C         3.599733         0.978464        -0.412155
 C         4.259440        -0.355014        -0.969641
 C         3.366193        -1.126151         0.182011
 O         2.023368        -1.219912        -0.333536
 C         3.375899         0.182839         1.020327
 O         1.979384         0.370329         1.291224
 H        -0.315312        -0.658707         0.697784
 H        -0.491486         0.903850        -0.026943
 H        -0.357060        -0.427215        -1.025642
 H         1.980586         1.086662        -1.918909
 H         1.892123         2.123642        -0.518521
 H         4.130969         1.895610        -0.545684
 H         3.948561        -0.578799        -1.945714
 H         5.358442        -0.561084        -0.780423
 H         3.753814        -2.099053         0.473294
 H         3.981713         0.328809         1.944717
