19
Iteration:   110charge 0 multiplicity 1
 C        -0.122536         0.001787        -0.145714
 C         1.373927         0.093871         0.149119
 C         2.097739         1.068053        -0.833677
 C         3.623356         0.928842        -0.467831
 C         4.246714        -0.353164        -1.001737
 C         3.478834        -1.097400         0.120975
 O         2.074180        -1.405408        -0.185764
 C         3.391568         0.222266         0.996391
 O         1.994110         0.572533         1.314828
 H        -0.732226        -0.875693         0.269582
 H        -0.544427         0.889920         0.081660
 H        -0.100100        -0.039500        -1.272572
 H         1.985135         0.725351        -1.848189
 H         1.708237         2.100307        -0.836651
 H         4.136522         1.838567        -0.588308
 H         3.999501        -0.663590        -2.006771
 H         5.286513        -0.468861        -0.988349
 H         3.808265        -1.966063         0.477361
 H         4.009821         0.242992         1.932828
