19
Iteration:  4811charge 0 multiplicity 1
 C        -0.085459         0.083806        -0.006193
 C         1.411299         0.039859        -0.074954
 C         2.131445         1.059532        -0.923584
 C         3.609269         0.929019        -0.362868
 C         4.311177        -0.292352        -0.874088
 C         3.420322        -1.128070         0.123458
 O         2.024420        -1.199044        -0.354669
 C         3.369530         0.196727         0.922382
 O         1.949235         0.333050         1.362188
 H        -0.368611        -0.656520         0.828769
 H        -0.418285         1.008843         0.475025
 H        -0.515481        -0.428722        -0.821020
 H         2.335915         0.920443        -2.005365
 H         1.580661         1.997864        -0.694386
 H         4.124984         1.928072        -0.331315
 H         4.253319        -0.487842        -1.927030
 H         5.487176        -0.435288        -0.680992
 H         3.610643        -2.038228         0.698055
 H         4.039864         0.211346         1.767537
