19
Iteration:  4748
 C        -0.103752        -0.057513        -0.118729
 C         1.451567         0.039148         0.089326
 C         2.111341         1.165850        -0.881520
 C         3.639906         0.976228        -0.350874
 C         4.159916        -0.374985        -0.932421
 C         3.371831        -1.115128         0.124372
 O         2.006240        -1.211522        -0.277600
 C         3.405154         0.190917         0.978092
 O         2.056855         0.395700         1.332371
 H        -0.409024        -1.101314         0.201625
 H        -0.662472         0.910272         0.037320
 H        -0.113923        -0.143920        -1.249467
 H         2.145524         1.217589        -1.946142
 H         1.719245         2.197108        -0.612818
 H         4.325497         1.842981        -0.590823
 H         4.155348        -0.686033        -2.040051
 H         5.326278        -0.411280        -0.696762
 H         3.754020        -2.114228         0.361381
 H         4.038390         0.275095         1.854581
