19
Iteration:  4609charge 0 multiplicity 1
 C        -0.051661         0.003854        -0.126368
 C         1.415209         0.088972        -0.026559
 C         2.210845         1.195779        -0.875611
 C         3.599340         0.989724        -0.318544
 C         4.178703        -0.359292        -1.043622
 C         3.443297        -1.130633         0.135343
 O         2.040529        -1.366583        -0.205913
 C         3.350286         0.221300         1.009037
 O         1.949105         0.375207         1.323011
 H        -0.333873        -0.757906         0.607231
 H        -0.553063         0.932710         0.155293
 H        -0.496818        -0.265233        -1.096424
 H         2.240953         1.303379        -1.968525
 H         1.842658         2.210183        -0.518903
 H         4.266127         1.910736        -0.273413
 H         3.773427        -0.646074        -2.103223
 H         5.330796        -0.499713        -0.965588
 H         4.071679        -1.983833         0.465529
 H         3.991624         0.361936         1.869390
