19
Iteration:  3516charge 0 multiplicity 1
 C        -0.019474         0.037001        -0.191590
 C         1.456811         0.047612         0.131586
 C         2.161531         1.066465        -0.891332
 C         3.627021         1.001630        -0.354767
 C         4.186780        -0.281326        -1.003043
 C         3.421349        -1.169256         0.086709
 O         1.995404        -1.292886        -0.180100
 C         3.413051         0.153904         0.958110
 O         1.944881         0.473795         1.368714
 H        -0.659170        -0.617193         0.550102
 H        -0.717547         0.928309        -0.229336
 H        -0.166787        -0.422408        -1.216593
 H         2.048797         0.879695        -1.938333
 H         1.668294         1.986775        -0.808885
 H         4.212506         1.964571        -0.421053
 H         4.081905        -0.591106        -2.094147
 H         5.364139        -0.431706        -0.783054
 H         3.815951        -2.166984         0.309595
 H         4.064626         0.132701         1.882390
