19
Iteration:  4039
 C        -0.127510        -0.039606        -0.051301
 C         1.444753         0.031222         0.007782
 C         2.161655         1.159418        -0.865867
 C         3.605564         0.909200        -0.347998
 C         4.246291        -0.352181        -0.955530
 C         3.382792        -1.123373         0.065605
 O         2.015673        -1.172065        -0.259582
 C         3.350450         0.199022         0.969001
 O         2.035449         0.374658         1.312768
 H        -0.319702        -0.843630         0.613185
 H        -0.471102         0.990782         0.153985
 H        -0.516447        -0.234150        -1.097874
 H         2.179392         1.080559        -1.923570
 H         1.714047         2.045160        -0.709008
 H         4.062556         1.941908        -0.236147
 H         4.362685        -0.590119        -2.000462
 H         5.347046        -0.377250        -0.584508
 H         3.700981        -2.112635         0.370710
 H         4.075425         0.279696         1.789064
