19
Iteration:   805
 C        -0.157937         0.045097        -0.025625
 C         1.390562        -0.016158        -0.005262
 C         2.209536         1.121026        -0.938532
 C         3.678773         1.046135        -0.382306
 C         4.304915        -0.398944        -0.975773
 C         3.411776        -1.071107         0.117165
 O         2.050775        -1.284608        -0.210749
 C         3.350633         0.228561         0.986974
 O         1.936544         0.355812         1.300580
 H        -0.700213        -0.440104         0.841490
 H        -0.419277         1.157431        -0.111403
 H        -0.398616        -0.513477        -0.905105
 H         2.123363         0.880433        -1.983538
 H         1.780001         2.204609        -0.852764
 H         4.128613         2.052048        -0.339516
 H         4.086130        -0.630139        -2.029489
 H         5.320795        -0.707843        -0.801454
 H         3.806876        -1.976356         0.632005
 H         3.939250         0.202756         1.880296
