19
Iteration:  2109
 C        -0.070571         0.092623        -0.007120
 C         1.429809        -0.047847        -0.015341
 C         2.160994         1.126324        -0.941260
 C         3.574354         0.956814        -0.435126
 C         4.225101        -0.342316        -0.924728
 C         3.428241        -1.117889         0.109113
 O         2.089574        -1.272145        -0.291452
 C         3.379339         0.222946         1.054002
 O         1.924972         0.370286         1.293267
 H        -0.416569        -0.516189         0.904992
 H        -0.268965         1.187668         0.084708
 H        -0.402337        -0.117189        -1.040090
 H         2.008816         0.944620        -2.024285
 H         1.654744         1.978193        -0.581344
 H         4.285903         1.821384        -0.355209
 H         4.088879        -0.466194        -1.992087
 H         5.267297        -0.431244        -0.568140
 H         3.788361        -2.118625         0.521981
 H         3.955373         0.281449         2.027624
