19
Iteration:  1758charge 0 multiplicity 1
 C        -0.061925         0.061274        -0.069809
 C         1.493232        -0.005204        -0.036508
 C         2.147528         1.069821        -0.866888
 C         3.593958         0.936615        -0.407816
 C         4.203768        -0.299615        -1.019119
 C         3.471247        -1.155870         0.188527
 O         2.039850        -1.255150        -0.207973
 C         3.318153         0.237269         1.023896
 O         1.954680         0.389199         1.297530
 H        -0.502411        -0.211188         0.827226
 H        -0.404034         1.114112        -0.265200
 H        -0.412221        -0.461677        -0.981835
 H         2.004600         0.892015        -2.042468
 H         1.925099         2.149387        -0.609081
 H         4.180408         1.823047        -0.615771
 H         3.854183        -0.594646        -2.012526
 H         5.349138        -0.349782        -0.839655
 H         3.776989        -2.120140         0.587869
 H         4.046399         0.305240         1.861623
