19
Iteration:  1163
 C        -0.052201         0.036758        -0.092321
 C         1.476986         0.048342        -0.050270
 C         2.158119         1.168325        -0.861726
 C         3.611206         1.023062        -0.371423
 C         4.164844        -0.396669        -0.995321
 C         3.378814        -1.112947         0.109738
 O         2.032503        -1.325650        -0.190322
 C         3.385998         0.276979         1.055530
 O         1.974546         0.285915         1.285643
 H        -0.385556        -0.579774         0.717369
 H        -0.452984         1.177640        -0.110943
 H        -0.498195        -0.294727        -1.076832
 H         2.120233         0.894310        -1.867331
 H         1.963258         2.256624        -0.767313
 H         4.436876         1.843807        -0.254672
 H         4.023836        -0.580873        -2.083032
 H         5.246870        -0.297886        -0.944085
 H         3.777616        -2.006659         0.416672
 H         3.890284         0.514467         2.004228
