19
Iteration:  3341
 C        -0.064410        -0.084174         0.009289
 C         1.365777         0.132275         0.040358
 C         2.193127         1.171598        -0.874856
 C         3.638800         0.982865        -0.325531
 C         4.302494        -0.346833        -0.919450
 C         3.356767        -1.184459         0.133212
 O         2.027050        -1.242511        -0.373665
 C         3.339640         0.157753         0.930564
 O         1.985482         0.454871         1.255169
 H        -0.386093        -0.666417         0.895252
 H        -0.610188         0.940159         0.067861
 H        -0.281929        -0.789232        -0.833799
 H         2.171034         0.736410        -1.881330
 H         1.882371         2.242329        -0.805568
 H         4.153757         1.937047        -0.118349
 H         4.070129        -0.586846        -1.976471
 H         5.391613        -0.464111        -0.638003
 H         3.524583        -2.113637         0.594544
 H         4.019477         0.249519         1.748131
