19
Iteration:  4829charge 0 multiplicity 1
 C        -0.058653         0.007297         0.003498
 C         1.435385         0.079833         0.082151
 C         2.155666         1.104922        -0.904121
 C         3.653329         0.966887        -0.395644
 C         4.372902        -0.342149        -0.902507
 C         3.392891        -1.088016         0.044502
 O         2.006319        -1.248604        -0.336336
 C         3.266437         0.172480         0.986597
 O         1.962036         0.345222         1.309995
 H        -0.602058        -0.527447         0.758124
 H        -0.477883         1.031703         0.188491
 H        -0.461495        -0.253283        -1.017055
 H         1.893366         0.738207        -1.944921
 H         1.922144         2.134471        -0.748326
 H         4.030387         1.988254        -0.411726
 H         4.404103        -0.627829        -1.949318
 H         5.274543        -0.312977        -0.461709
 H         3.721362        -2.110618         0.277565
 H         3.909581         0.401261         1.841015
