19
Iteration:  1593
 C        -0.016210        -0.038323        -0.137975
 C         1.475546         0.088616        -0.010793
 C         2.155143         1.176724        -0.851135
 C         3.678009         0.893045        -0.363448
 C         4.204560        -0.300577        -1.024963
 C         3.407684        -1.156268         0.142015
 O         1.976792        -1.265154        -0.197516
 C         3.335305         0.193538         1.037836
 O         1.967091         0.435527         1.267742
 H        -0.191956        -0.610803         0.827559
 H        -0.404284         0.995048         0.035897
 H        -0.105943        -0.592178        -1.046459
 H         1.955691         1.189016        -2.022140
 H         1.566193         2.100259        -0.376848
 H         4.352371         1.722392        -0.477423
 H         3.617653        -0.724072        -1.864704
 H         5.309459        -0.461728        -1.159266
 H         3.675253        -2.046769         0.662554
 H         3.964951         0.250090         1.885084
