19
Iteration:   303charge 0 multiplicity 1
 C        -0.157552         0.072672         0.139870
 C         1.396436         0.023214        -0.013973
 C         2.145240         1.021243        -0.958221
 C         3.577458         1.029732        -0.325655
 C         4.374893        -0.344147        -0.865307
 C         3.445913        -1.159447         0.150528
 O         2.060760        -1.289925        -0.393178
 C         3.299307         0.261035         0.912656
 O         1.993583         0.411215         1.242039
 H        -0.746767        -0.711749         0.754325
 H        -0.186807         1.025993         0.512782
 H        -0.525154        -0.027233        -0.924809
 H         2.159767         0.527872        -1.945778
 H         1.788389         2.035243        -0.864282
 H         4.123071         1.935204        -0.204408
 H         3.984990        -0.541399        -1.863742
 H         5.503754        -0.474181        -0.811746
 H         3.839392        -2.188859         0.618219
 H         3.932198         0.452909         1.747986
