19
Iteration:  3178charge 0 multiplicity 1
 C        -0.097508         0.109859         0.038692
 C         1.413183         0.046039         0.013289
 C         2.113701         0.993301        -0.937581
 C         3.570760         1.016296        -0.392318
 C         4.453047        -0.317267        -0.867694
 C         3.417427        -1.093295         0.028230
 O         1.994274        -1.184346        -0.344825
 C         3.302184         0.121122         0.971648
 O         1.967026         0.298686         1.325895
 H        -0.624941        -0.515843         0.671722
 H        -0.316241         1.100700         0.438272
 H        -0.408922        -0.121988        -0.964570
 H         1.951614         0.717819        -2.005439
 H         1.869532         2.078450        -0.606943
 H         4.102194         1.953378        -0.332673
 H         4.647609        -0.518259        -1.899286
 H         5.374827        -0.457294        -0.353138
 H         3.622347        -2.014593         0.488877
 H         4.046193         0.258328         1.695135
