19
Iteration:  2829charge 0 multiplicity 1
 C        -0.054610         0.041333        -0.221350
 C         1.520011         0.010889         0.061568
 C         2.146801         1.059643        -0.837158
 C         3.557182         0.932951        -0.433122
 C         4.260685        -0.331950        -0.920346
 C         3.427128        -1.057205         0.143466
 O         1.982246        -1.246597        -0.218480
 C         3.342341         0.189625         0.922944
 O         2.001520         0.393689         1.365209
 H        -0.772726        -0.750452         0.249001
 H        -0.427169         0.837771         0.406385
 H        -0.294594         0.146935        -1.309997
 H         1.763287         0.901643        -1.871376
 H         1.809626         2.103273        -0.446809
 H         4.238698         1.768330        -0.430941
 H         4.002342        -0.734032        -1.948507
 H         5.271243        -0.363860        -0.776848
 H         3.853106        -2.050151         0.537259
 H         4.145094         0.468019         1.741813
