19
Iteration:  1830
 C        -0.084557        -0.083931         0.007546
 C         1.422792         0.085621         0.041732
 C         2.103592         1.124765        -0.905149
 C         3.661410         0.956295        -0.479201
 C         4.293679        -0.425700        -0.864488
 C         3.384293        -1.117965         0.205792
 O         2.037019        -1.232337        -0.371917
 C         3.316797         0.221181         0.990618
 O         2.009412         0.440698         1.259025
 H        -0.495709        -0.865724         0.710325
 H        -0.445500         0.901048         0.468853
 H        -0.344429        -0.101581        -1.060412
 H         2.121632         0.894497        -1.899194
 H         1.640722         2.100277        -0.821174
 H         4.384066         1.895771        -0.554369
 H         4.103262        -0.555676        -1.949696
 H         5.271842        -0.278147        -0.548075
 H         3.561031        -2.096438         0.762612
 H         4.007157         0.474007         1.815525
