19
Iteration:  2086
 C        -0.085745         0.073354         0.059892
 C         1.362128         0.093224        -0.011931
 C         2.161358         1.067335        -0.929166
 C         3.578611         0.918781        -0.423400
 C         4.396102        -0.317319        -0.848635
 C         3.424820        -1.080568         0.153373
 O         2.030981        -1.264287        -0.359623
 C         3.327244         0.238376         0.903381
 O         1.958543         0.321236         1.283878
 H        -0.274527        -0.774337         0.864128
 H        -0.377783         1.020204         0.527705
 H        -0.601097         0.110334        -0.883376
 H         2.087047         0.739741        -1.963281
 H         1.649500         1.919798        -0.746702
 H         4.214469         1.886617        -0.502533
 H         4.305963        -0.632553        -1.825362
 H         5.401150        -0.364957        -0.383378
 H         3.523990        -2.069480         0.538861
 H         3.986106         0.160622         1.820878
