19
Iteration:  1080
 C        -0.047855        -0.102086         0.020634
 C         1.433295         0.102764        -0.079910
 C         2.195892         1.123912        -0.845074
 C         3.666732         0.940148        -0.346842
 C         4.216834        -0.448783        -0.936127
 C         3.442424        -1.143928         0.139074
 O         2.036893        -1.194280        -0.344312
 C         3.306912         0.240326         0.979867
 O         1.921238         0.479792         1.279635
 H        -0.339357        -0.986822         0.480945
 H        -0.504645         0.631666         0.620177
 H        -0.513667        -0.142727        -0.976601
 H         2.159976         0.991871        -1.937195
 H         1.915885         2.172247        -0.604820
 H         4.295702         1.813038        -0.421820
 H         3.961212        -0.644052        -1.997555
 H         5.288143        -0.432978        -0.738325
 H         3.647079        -2.172079         0.593126
 H         3.910369         0.484171         1.918415
