19
Iteration:  3751charge 0 multiplicity 1
 C        -0.037752         0.057031         0.031975
 C         1.492372        -0.022679        -0.030267
 C         2.081044         1.106909        -0.920526
 C         3.636018         0.962752        -0.372523
 C         4.286607        -0.357345        -0.888988
 C         3.417989        -1.076747         0.143597
 O         2.019730        -1.324135        -0.354604
 C         3.317752         0.247521         0.996015
 O         1.936560         0.385973         1.268217
 H        -0.481022        -0.610326         0.807709
 H        -0.425837         1.033391         0.405944
 H        -0.516815        -0.173944        -0.907839
 H         2.279970         1.134888        -1.980544
 H         1.776470         2.064482        -0.749840
 H         4.092035         1.929406        -0.230235
 H         4.210121        -0.660776        -2.008225
 H         5.381282        -0.286855        -0.737670
 H         3.738822        -2.071729         0.520345
 H         4.035667         0.462367         1.831693
