19
Iteration:  3686
 C        -0.078907        -0.073382        -0.078559
 C         1.375165         0.038201        -0.013634
 C         2.208015         1.088628        -0.891349
 C         3.627751         0.938438        -0.389314
 C         4.203380        -0.314796        -0.915647
 C         3.368704        -1.050490         0.099144
 O         2.021823        -1.224580        -0.244139
 C         3.404632         0.162187         0.979369
 O         1.997208         0.468663         1.333501
 H        -0.160008        -0.764431         0.735576
 H        -0.588047         0.899643        -0.110092
 H        -0.186384        -0.506079        -1.057973
 H         2.024539         1.037988        -2.019650
 H         1.802530         2.163598        -0.754875
 H         4.256608         1.823765        -0.378766
 H         4.007475        -0.679155        -1.981518
 H         5.197868        -0.581252        -0.581411
 H         3.740155        -2.070633         0.401901
 H         4.016358         0.137698         1.925467
