19
Iteration:  3532
 C        -0.066842         0.027367        -0.196569
 C         1.417137         0.046742         0.027980
 C         2.158603         1.064548        -0.822784
 C         3.601207         0.906403        -0.383536
 C         4.280752        -0.330764        -0.984487
 C         3.350605        -1.067385         0.073270
 O         1.988122        -1.232114        -0.146470
 C         3.334659         0.236336         0.965907
 O         2.043337         0.342731         1.334925
 H        -0.532984        -0.547594         0.525346
 H        -0.232027         1.059957         0.012277
 H        -0.075144        -0.398872        -1.176405
 H         1.934239         0.635105        -1.860029
 H         1.764527         2.131056        -0.551633
 H         4.070359         1.866195        -0.410721
 H         4.142762        -0.450784        -2.083264
 H         5.289889        -0.368213        -0.781641
 H         3.907711        -1.931727         0.520767
 H         4.033178         0.458962         1.724538
