19
Iteration:   476charge 0 multiplicity 1
 C        -0.048612        -0.065060        -0.000838
 C         1.475843         0.077627        -0.049195
 C         2.131665         1.156577        -0.839863
 C         3.636439         0.907590        -0.363905
 C         4.270683        -0.425119        -0.971686
 C         3.409487        -1.028787         0.074987
 O         2.026589        -1.247033        -0.250156
 C         3.340621         0.193101         0.988284
 O         1.932306         0.432510         1.256765
 H        -0.446874        -0.684031         0.902997
 H        -0.365420         0.848445         0.397024
 H        -0.528788        -0.249992        -1.023104
 H         2.158000         1.071829        -1.957386
 H         1.724680         2.134505        -0.628443
 H         4.103252         1.887750        -0.174027
 H         4.011936        -0.697341        -1.987580
 H         5.389205        -0.377336        -0.898814
 H         3.702010        -2.042282         0.500906
 H         4.038044         0.176427         1.791399
