19
Iteration:  3952charge 0 multiplicity 1
 C        -0.034402        -0.117935        -0.116142
 C         1.462218         0.076189         0.052076
 C         2.146856         1.133654        -0.825047
 C         3.700287         0.957454        -0.400006
 C         4.237458        -0.364128        -0.964852
 C         3.360493        -1.129731         0.089774
 O         1.950463        -1.179492        -0.257571
 C         3.398408         0.260923         0.955749
 O         1.962068         0.396885         1.338598
 H        -0.325288        -0.935070         0.484228
 H        -0.672497         0.727933         0.198022
 H        -0.533809        -0.368639        -1.086204
 H         2.074991         1.058168        -1.916198
 H         1.886359         2.127622        -0.387619
 H         4.377637         1.850088        -0.594728
 H         3.933479        -0.451966        -2.009552
 H         5.332487        -0.574652        -0.583079
 H         3.785601        -2.099506         0.306129
 H         4.005338         0.221457         1.881627
