19
Iteration:  3708charge 0 multiplicity 1
 C        -0.123359        -0.126032         0.051168
 C         1.455524         0.113753         0.029313
 C         2.228670         1.144119        -0.943103
 C         3.615275         0.988001        -0.363836
 C         4.380147        -0.401137        -0.949328
 C         3.379135        -1.181802         0.146870
 O         1.968080        -1.156164        -0.366328
 C         3.328569         0.243621         0.963863
 O         1.950726         0.403117         1.331968
 H        -0.248375        -0.793729         0.893294
 H        -0.651339         0.823165        -0.017593
 H        -0.218925        -0.521681        -0.908965
 H         1.993783         0.878024        -2.002575
 H         1.614146         2.112540        -0.997573
 H         4.208052         1.902918        -0.442873
 H         4.372091        -0.638738        -2.079416
 H         5.385957        -0.513304        -0.544101
 H         3.438531        -2.192119         0.631023
 H         3.958443         0.456977         1.884257
