19
Iteration:  1053charge 0 multiplicity 1
 C        -0.001332        -0.010798        -0.123544
 C         1.446694         0.058801        -0.044700
 C         2.139554         1.135968        -0.877640
 C         3.647999         1.018829        -0.367130
 C         4.184624        -0.372252        -0.974103
 C         3.464730        -1.102562         0.161358
 O         1.979496        -1.280946        -0.212586
 C         3.340288         0.193375         0.973379
 O         1.984266         0.368886         1.358930
 H        -0.596340        -0.856538         0.407347
 H        -0.497951         0.952227         0.245239
 H        -0.220299        -0.079009        -1.193894
 H         2.094708         0.896884        -1.964616
 H         1.740449         2.137301        -0.765400
 H         4.332956         1.953318        -0.532198
 H         3.845865        -0.572068        -2.001472
 H         5.300143        -0.418912        -0.871998
 H         3.679362        -2.023958         0.650313
 H         3.953232         0.370639         1.805978
