19
Iteration:  4632charge 0 multiplicity 1
 C         0.011303        -0.044899        -0.102150
 C         1.426524         0.059746         0.034783
 C         2.152638         1.148350        -0.808752
 C         3.602861         0.958273        -0.411791
 C         4.226934        -0.343221        -0.963301
 C         3.384244        -1.121807         0.168304
 O         2.039071        -1.204321        -0.303501
 C         3.359005         0.185317         1.009802
 O         1.969753         0.373899         1.290244
 H        -0.383859        -0.653833         0.676917
 H        -0.439094         0.933333        -0.000175
 H        -0.382543        -0.439670        -1.053277
 H         1.924218         1.109807        -1.907657
 H         1.798209         2.162967        -0.523746
 H         4.205171         1.892676        -0.556159
 H         3.940530        -0.575182        -2.051922
 H         5.377562        -0.582801        -0.776748
 H         3.635401        -2.183916         0.440545
 H         3.944903         0.349194         1.928679
