19
Iteration:    20charge 0 multiplicity 1
 C         0.031476        -0.131919         0.137636
 C         1.458791         0.194533         0.021378
 C         2.200428         1.120192        -1.029749
 C         3.625721         0.948808        -0.507279
 C         4.264146        -0.417251        -0.827216
 C         3.278272        -1.111003         0.192737
 O         1.983036        -1.262553        -0.400448
 C         3.318953         0.311049         0.882969
 O         1.936415         0.408803         1.387612
 H        -0.023101        -0.726168         1.007538
 H        -0.704636         0.808657         0.233593
 H        -0.288380        -0.730073        -0.687346
 H         2.017057         0.754731        -2.092474
 H         1.940712         2.212433        -1.006158
 H         4.264784         1.889967        -0.612816
 H         4.406177        -0.800348        -1.842822
 H         5.378378        -0.443437        -0.455398
 H         3.827572        -1.949849         0.666229
 H         4.050431         0.501256         1.631709
