19
Iteration:  3252charge 0 multiplicity 1
 C        -0.059547        -0.037389        -0.137880
 C         1.451118         0.082531         0.022329
 C         2.200070         1.166405        -0.877454
 C         3.651457         0.988299        -0.358101
 C         4.144551        -0.358671        -0.945438
 C         3.350262        -1.081655         0.136874
 O         1.993699        -1.263045        -0.236049
 C         3.400644         0.208375         0.932344
 O         1.998023         0.340109         1.338368
 H        -0.387255        -1.055269         0.199149
 H        -0.788701         0.656614         0.430838
 H        -0.140605        -0.102064        -1.281658
 H         2.183873         1.212812        -1.936156
 H         1.991259         2.213270        -0.526288
 H         4.267449         1.862301        -0.169540
 H         3.963230        -0.608439        -1.961511
 H         5.290964        -0.553042        -0.845105
 H         3.794179        -1.998526         0.445565
 H         4.014911         0.350384         1.824271
