19
Iteration:  3108charge 0 multiplicity 1
 C        -0.059641        -0.112393        -0.191179
 C         1.403041         0.150297         0.060808
 C         2.154242         1.269058        -0.795806
 C         3.612141         0.914441        -0.383944
 C         4.211792        -0.434328        -0.952648
 C         3.392542        -1.166241         0.085690
 O         2.028684        -1.192862        -0.290207
 C         3.351981         0.179057         0.994403
 O         2.037906         0.439178         1.351390
 H        -0.584619        -0.784439         0.572533
 H        -0.555497         0.824515        -0.080681
 H         0.031721        -0.581544        -1.194381
 H         1.999182         1.285939        -1.860892
 H         1.773211         2.109719        -0.290546
 H         4.070985         1.888648        -0.439419
 H         4.096585        -0.845727        -1.877790
 H         5.310162        -0.452681        -0.760999
 H         3.682734        -2.204972         0.322848
 H         4.039818         0.053916         1.909826
