19
Iteration:  4922charge 0 multiplicity 1
 C        -0.031218         0.050517        -0.047756
 C         1.414360         0.137734         0.075784
 C         2.121412         1.049564        -0.881137
 C         3.624117         0.949616        -0.395344
 C         4.283685        -0.314043        -0.966539
 C         3.377706        -1.110419         0.075854
 O         2.045008        -1.283120        -0.345782
 C         3.343859         0.181850         1.004464
 O         1.955256         0.368891         1.326071
 H        -0.368925        -0.756472         0.631857
 H        -0.591031         0.927210         0.310577
 H        -0.224730        -0.055617        -1.161725
 H         2.014104         0.809246        -1.932456
 H         1.772757         2.105283        -0.615402
 H         4.172875         1.888169        -0.244469
 H         4.339480        -0.654201        -1.984234
 H         5.270490        -0.496150        -0.408491
 H         3.860875        -2.007687         0.476385
 H         3.863026         0.355018         1.940528
