19
Iteration:  2615charge 0 multiplicity 1
 C        -0.155725        -0.021465         0.092881
 C         1.484220         0.024018        -0.063221
 C         2.187616         1.041387        -0.951578
 C         3.652996         0.974741        -0.394272
 C         4.318360        -0.331493        -0.896188
 C         3.412591        -1.089781         0.180038
 O         2.010681        -1.217698        -0.345774
 C         3.346532         0.248338         0.949299
 O         1.926006         0.415272         1.266272
 H        -0.395980        -0.911035         0.761192
 H        -0.375696         0.868775         0.760431
 H        -0.734665        -0.147775        -0.831478
 H         2.188254         0.976887        -2.009750
 H         1.971497         2.027570        -0.625644
 H         4.221420         1.875847        -0.595434
 H         4.158391        -0.746489        -1.919943
 H         5.356988        -0.585039        -0.568299
 H         3.616109        -2.127296         0.434448
 H         3.769206         0.289228         1.940857
