19
Iteration:  3738charge 0 multiplicity 1
 C        -0.085548         0.016187         0.106345
 C         1.410351         0.037728        -0.086714
 C         2.197278         1.086431        -0.867600
 C         3.592280         0.996564        -0.377138
 C         4.277314        -0.339441        -0.857601
 C         3.398350        -1.175710         0.175308
 O         2.089923        -1.220708        -0.386777
 C         3.333318         0.251515         0.961033
 O         1.955741         0.371348         1.192504
 H        -0.213415        -0.719231         0.923296
 H        -0.319627         1.145396         0.270521
 H        -0.632389        -0.345371        -0.862386
 H         1.884657         0.862086        -1.876583
 H         1.670483         1.924592        -0.557896
 H         4.209769         1.849865        -0.567793
 H         4.112914        -0.615601        -1.993867
 H         5.309711        -0.470719        -0.442253
 H         3.671040        -2.120403         0.709229
 H         3.821170         0.427021         1.937289
