19
Iteration:  3188
 C        -0.113793         0.096353         0.053816
 C         1.415656         0.046112         0.075756
 C         2.168185         1.098740        -0.905282
 C         3.636977         0.965304        -0.449914
 C         4.378838        -0.322087        -0.832580
 C         3.446959        -1.103595         0.075514
 O         1.973589        -1.236707        -0.407006
 C         3.333709         0.188551         0.949954
 O         1.951176         0.291563         1.342439
 H        -0.436340        -0.751763         0.605504
 H        -0.557835         1.074612         0.318326
 H        -0.437962         0.082394        -0.999156
 H         2.035525         0.800615        -1.964961
 H         1.440471         2.002417        -0.982142
 H         4.091529         1.928162        -0.406921
 H         4.508097        -0.628756        -1.808200
 H         5.315685        -0.420242        -0.294085
 H         3.773824        -2.060135         0.240725
 H         3.994169         0.285573         1.800768
