19
Iteration:  3056charge 0 multiplicity 1
 C        -0.064261         0.110149         0.075706
 C         1.416625         0.022461        -0.040760
 C         2.193893         1.108905        -0.958967
 C         3.721870         0.971557        -0.264607
 C         4.228199        -0.292711        -0.931664
 C         3.445695        -1.136225         0.129802
 O         2.080856        -1.288163        -0.341501
 C         3.284167         0.137974         0.988307
 O         1.878133         0.369420         1.216077
 H        -0.379658        -0.712264         0.748530
 H        -0.093435         1.090090         0.473528
 H        -0.600922         0.121131        -0.882248
 H         2.067351         0.661438        -1.971567
 H         1.398045         2.061303        -0.928483
 H         4.134511         1.930357        -0.129701
 H         4.097311        -0.483830        -2.053718
 H         5.308590        -0.471028        -0.631387
 H         3.803332        -2.008830         0.533866
 H         3.929511         0.268680         1.952974
