19
Iteration:  4696
 C        -0.121692         0.045921         0.064943
 C         1.475344         0.018612        -0.027190
 C         2.202351         1.164842        -0.898921
 C         3.638856         0.989909        -0.342845
 C         4.250957        -0.307708        -0.876012
 C         3.363902        -1.158205         0.132674
 O         2.055010        -1.334274        -0.368561
 C         3.300255         0.197097         0.902079
 O         1.941471         0.381175         1.274037
 H        -0.337678        -0.618992         0.917219
 H        -0.211427         1.070025         0.464780
 H        -0.630728        -0.342889        -0.897275
 H         2.341967         0.887814        -1.980919
 H         1.854059         2.240672        -0.858813
 H         4.164597         1.979832        -0.136657
 H         4.163930        -0.477878        -1.994231
 H         5.247896        -0.459094        -0.740691
 H         3.891704        -2.039766         0.613581
 H         3.970022         0.424738         1.747778
