19
Iteration:  2307charge 0 multiplicity 1
 C        -0.068255        -0.100070        -0.062709
 C         1.505536         0.073522         0.012457
 C         2.231358         1.147645        -0.848856
 C         3.666306         0.992197        -0.364429
 C         4.232792        -0.374997        -0.988520
 C         3.390924        -1.103269         0.098073
 O         1.951625        -1.211846        -0.223649
 C         3.341024         0.194066         0.947611
 O         1.932600         0.413028         1.308747
 H        -0.509029        -0.895221         0.568338
 H        -0.583147         0.906853         0.150648
 H        -0.339695        -0.543544        -1.096965
 H         2.133255         1.174827        -1.905061
 H         1.730899         2.056993        -0.547443
 H         4.316339         1.877435        -0.344125
 H         4.028585        -0.542536        -2.092442
 H         5.256747        -0.493456        -0.775597
 H         3.850249        -2.115932         0.535998
 H         4.091388         0.236394         1.709898
