19
Iteration:  3609charge 0 multiplicity 1
 C        -0.097644        -0.046743         0.042275
 C         1.398841         0.145397         0.061307
 C         2.208951         1.037292        -0.934324
 C         3.618248         0.978398        -0.410462
 C         4.288261        -0.373035        -0.855793
 C         3.338686        -1.129213         0.037001
 O         2.006302        -1.237019        -0.298061
 C         3.367941         0.210744         0.946733
 O         1.974536         0.422212         1.255669
 H        -0.174370        -0.949540         0.556264
 H        -0.694576         0.748248         0.569092
 H        -0.108735        -0.139149        -1.050021
 H         2.092614         0.915093        -2.073351
 H         1.769406         2.162983        -0.899422
 H         4.158577         1.892394        -0.215428
 H         4.528900        -0.594563        -1.950570
 H         5.274119        -0.345780        -0.430639
 H         3.783217        -1.962040         0.695981
 H         3.914883         0.262488         1.915548
