19
Iteration:  4308
 C        -0.092998        -0.059205        -0.057710
 C         1.499216         0.122547        -0.007951
 C         2.168113         1.139577        -0.881845
 C         3.575289         0.923020        -0.417623
 C         4.321074        -0.372884        -0.945253
 C         3.367437        -1.142442         0.102935
 O         2.032972        -1.152607        -0.264546
 C         3.337758         0.166244         0.986104
 O         1.949255         0.402839         1.368347
 H        -0.354539        -0.809321         0.659242
 H        -0.654991         0.886853         0.097734
 H        -0.281002        -0.469896        -1.080141
 H         1.987004         0.828297        -1.908432
 H         1.863178         2.133925        -0.651923
 H         4.228368         1.758853        -0.569085
 H         4.061001        -0.583371        -2.087463
 H         5.416675        -0.266048        -0.623882
 H         3.607503        -2.163709         0.434548
 H         4.021955         0.190094         1.814162
