19
Iteration:  3220charge 0 multiplicity 1
 C         0.004633        -0.046894        -0.002619
 C         1.480628         0.038869        -0.070355
 C         2.174718         1.172418        -0.880369
 C         3.668145         0.916228        -0.332354
 C         4.214836        -0.397009        -0.975444
 C         3.411453        -1.091549         0.148408
 O         2.018910        -1.154274        -0.293358
 C         3.320278         0.141689         0.973294
 O         1.910501         0.429205         1.274960
 H        -0.261782        -1.049633         0.348538
 H        -0.468198         0.698497         0.724998
 H        -0.452089        -0.037543        -1.046037
 H         2.209873         1.094876        -1.963046
 H         1.707731         2.084751        -0.364261
 H         4.136130         1.857705        -0.131800
 H         3.761187        -0.660711        -1.863713
 H         5.326982        -0.539846        -0.958037
 H         3.778298        -2.022780         0.374802
 H         3.818056         0.201966         1.927052
