19
Iteration:   958charge 0 multiplicity 1
 C        -0.077334        -0.150595         0.003845
 C         1.416245         0.059489        -0.068868
 C         2.182603         1.097209        -0.913317
 C         3.635344         0.912190        -0.366783
 C         4.270625        -0.452603        -0.835515
 C         3.317376        -1.139879         0.148198
 O         2.005646        -1.164008        -0.370765
 C         3.341448         0.328223         0.938699
 O         2.027374         0.475947         1.324381
 H        -0.334827        -0.743435         0.781875
 H        -0.557615         0.883871         0.196308
 H        -0.503200        -0.500315        -0.910191
 H         2.087881         0.988538        -1.951560
 H         1.722307         2.150777        -0.638416
 H         4.224436         1.858433        -0.318421
 H         4.237330        -0.458607        -1.962766
 H         5.283935        -0.570699        -0.477517
 H         3.818839        -2.025576         0.563503
 H         4.177270         0.406777         1.665372
