19
Iteration:  3605charge 0 multiplicity 1
 C        -0.120275        -0.072061         0.049366
 C         1.407683         0.159962         0.049471
 C         2.208687         1.089275        -0.948195
 C         3.651135         0.986404        -0.437919
 C         4.287115        -0.348687        -0.845880
 C         3.330101        -1.104784         0.049368
 O         1.999691        -1.261542        -0.310163
 C         3.339806         0.214485         0.951144
 O         1.992883         0.416672         1.263058
 H        -0.193290        -1.028960         0.709911
 H        -0.550503         0.699045         0.702757
 H        -0.238213        -0.253496        -1.096325
 H         2.174977         0.767903        -1.985500
 H         1.932284         2.077997        -0.898271
 H         4.288660         1.856684        -0.271633
 H         4.498360        -0.666668        -1.960895
 H         5.371356        -0.383398        -0.379206
 H         3.577121        -1.968144         0.658430
 H         3.723779         0.153895         1.943935
