19
Iteration:   388charge 0 multiplicity 1
 C         0.016008        -0.140952        -0.042069
 C         1.482672         0.086060        -0.058448
 C         2.179832         1.231920        -0.899540
 C         3.653621         1.012918        -0.394759
 C         4.149750        -0.438135        -0.917465
 C         3.330556        -1.120266         0.129426
 O         2.010044        -1.174501        -0.242967
 C         3.387957         0.251073         0.939703
 O         1.953412         0.325673         1.328915
 H        -0.163865        -0.858851         0.812594
 H        -0.503716         0.882714         0.072044
 H        -0.274480        -0.481821        -1.072393
 H         1.933586         1.169913        -2.002741
 H         1.610348         2.120051        -0.587140
 H         4.444506         1.815865        -0.130876
 H         3.869487        -0.514211        -1.977750
 H         5.294085        -0.536901        -0.841684
 H         3.672001        -2.099406         0.598476
 H         4.019128         0.320473         1.757497
