19
Iteration:   481
 C        -0.074631        -0.091750        -0.002411
 C         1.475505         0.106243        -0.025174
 C         2.127297         1.168826        -0.832251
 C         3.640177         0.888419        -0.364545
 C         4.281169        -0.408989        -1.028108
 C         3.453407        -1.063065         0.172548
 O         2.037052        -1.208269        -0.245914
 C         3.313358         0.150864         0.966875
 O         1.920633         0.451525         1.224689
 H        -0.366569        -0.868133         0.711417
 H        -0.531976         0.948008         0.307380
 H        -0.482876        -0.181030        -0.966662
 H         2.039083         1.073417        -1.893624
 H         1.816559         2.193253        -0.491990
 H         4.202086         1.822175        -0.266378
 H         3.915378        -0.748617        -2.032960
 H         5.363942        -0.310332        -1.007079
 H         3.773174        -2.041739         0.592523
 H         4.074582         0.042937         1.826453
