19
Iteration:  1144
 C        -0.073222         0.103845         0.001539
 C         1.441851         0.049923        -0.007232
 C         2.169636         1.036359        -0.963856
 C         3.609210         0.978367        -0.325053
 C         4.268309        -0.279372        -0.948474
 C         3.482478        -1.139071         0.130443
 O         2.048689        -1.263069        -0.261287
 C         3.270726         0.137519         0.936892
 O         1.925707         0.358491         1.317113
 H        -0.492253        -0.552697         0.702549
 H        -0.309422         1.202533         0.149430
 H        -0.347630        -0.135622        -1.072587
 H         2.028222         0.883472        -2.000047
 H         1.761327         2.056075        -0.652711
 H         4.164767         1.982971        -0.451175
 H         4.004261        -0.592531        -1.999008
 H         5.325310        -0.436855        -0.779757
 H         3.945315        -2.005099         0.610146
 H         4.021775         0.241516         1.796033
