19
Iteration:  3024
 C        -0.102629        -0.002999         0.019351
 C         1.414570         0.085731        -0.009543
 C         2.184820         1.105481        -0.989496
 C         3.673376         0.924696        -0.400291
 C         4.315029        -0.315121        -0.871808
 C         3.411960        -1.123104         0.098273
 O         1.989816        -1.172520        -0.329474
 C         3.306151         0.187465         1.011191
 O         1.958212         0.310119         1.328842
 H        -0.480348        -0.861956         0.621347
 H        -0.374251         0.936796         0.491037
 H        -0.555852         0.081780        -0.964152
 H         1.995508         0.854626        -2.043804
 H         1.747383         2.183109        -0.826219
 H         4.221563         1.868099        -0.418565
 H         4.494502        -0.557192        -1.996166
 H         5.239136        -0.416485        -0.242918
 H         3.738194        -2.097427         0.345518
 H         4.085795         0.285863         1.834780
