19
Iteration:  2049charge 0 multiplicity 1
 C        -0.032105        -0.068307         0.018681
 C         1.460835         0.102915         0.016078
 C         2.195054         1.106884        -0.887006
 C         3.648065         0.945743        -0.376654
 C         4.242274        -0.408718        -0.890022
 C         3.316678        -1.139049         0.089504
 O         2.002507        -1.254214        -0.330654
 C         3.369966         0.281610         0.973397
 O         1.929383         0.461792         1.284729
 H        -0.119482        -1.087741         0.279780
 H        -0.567613         0.600854         0.713453
 H        -0.490507        -0.211229        -1.002051
 H         2.214720         0.874261        -1.944503
 H         1.894625         2.199840        -0.898950
 H         4.344616         1.810888        -0.318341
 H         3.976091        -0.484519        -1.988381
 H         5.325023        -0.376348        -0.793362
 H         3.793517        -1.964650         0.626058
 H         4.026727         0.294448         1.817743
