19
Iteration:  1809
 C        -0.109744        -0.093092         0.048497
 C         1.472106         0.135581        -0.010107
 C         2.148888         1.070999        -0.974833
 C         3.581216         0.918357        -0.428353
 C         4.384535        -0.438182        -0.845788
 C         3.367342        -1.078815         0.095732
 O         2.016597        -1.135744        -0.328338
 C         3.294847         0.214035         0.971257
 O         1.956031         0.442523         1.295256
 H        -0.065568        -0.759490         0.962780
 H        -0.713605         0.773150         0.467137
 H        -0.523205        -0.649408        -0.816469
 H         1.968812         0.905680        -1.961383
 H         2.021482         2.105030        -0.793114
 H         4.304014         1.848950        -0.258473
 H         4.438278        -0.815762        -1.907872
 H         5.323689        -0.405070        -0.309239
 H         3.532460        -2.163263         0.380021
 H         4.198469         0.339936         1.567707
