19
Iteration:  4695
 C        -0.114267         0.054431         0.063544
 C         1.469827         0.016612        -0.029910
 C         2.197325         1.161263        -0.902038
 C         3.636285         0.990932        -0.339006
 C         4.262610        -0.306341        -0.878645
 C         3.363936        -1.156285         0.138236
 O         2.052229        -1.336418        -0.370361
 C         3.288400         0.193284         0.900497
 O         1.943884         0.383740         1.274267
 H        -0.295628        -0.637386         0.942544
 H        -0.240402         1.077652         0.497455
 H        -0.595974        -0.370250        -0.880023
 H         2.346119         0.882906        -1.957361
 H         1.854869         2.249406        -0.849647
 H         4.197678         1.966658        -0.149535
 H         4.173693        -0.472866        -1.998634
 H         5.228838        -0.467508        -0.728851
 H         3.908491        -2.034056         0.576375
 H         3.952293         0.422372         1.731804
