19
Iteration:   621charge 0 multiplicity 1
 C        -0.061217        -0.117873        -0.077815
 C         1.408281         0.077001        -0.001443
 C         2.229744         1.150297        -0.870262
 C         3.643364         0.897252        -0.354710
 C         4.295226        -0.380167        -1.011205
 C         3.388264        -1.086910         0.175439
 O         1.925296        -1.227786        -0.283822
 C         3.341657         0.233972         0.951819
 O         1.995399         0.470415         1.337921
 H        -0.325035        -0.678254         0.899589
 H        -0.736933         0.777441        -0.170988
 H        -0.196791        -0.729412        -0.946378
 H         2.047370         1.095050        -1.902024
 H         1.775042         2.079899        -0.448119
 H         4.271051         1.713108        -0.383216
 H         3.967403        -0.495685        -2.083544
 H         5.393279        -0.511346        -0.958567
 H         3.812984        -2.073194         0.656329
 H         4.036150         0.487909         1.815419
