19
Iteration:   942charge 0 multiplicity 1
 C        -0.038204        -0.011422        -0.100574
 C         1.445964         0.073304         0.008723
 C         2.131760         1.087412        -0.908544
 C         3.605190         0.965177        -0.476174
 C         4.236511        -0.352971        -0.896913
 C         3.396886        -1.104576         0.144157
 O         2.009879        -1.232860        -0.260623
 C         3.358945         0.195285         1.029773
 O         2.006757         0.425903         1.324836
 H        -0.406149        -0.881104         0.610202
 H        -0.512468         0.864160         0.236296
 H        -0.189876        -0.351593        -1.155194
 H         1.939403         0.812293        -2.006767
 H         1.791660         2.031221        -0.632485
 H         4.185727         1.898745        -0.683029
 H         4.141960        -0.830241        -1.852624
 H         5.311131        -0.321589        -0.548489
 H         3.563889        -2.102360         0.572725
 H         3.986461         0.396042         1.912842
