19
Iteration:    82charge 0 multiplicity 1
 C         0.039411         0.023441        -0.129870
 C         1.470959         0.018759         0.003917
 C         2.155611         0.995776        -0.948353
 C         3.561706         1.010221        -0.478073
 C         4.110056        -0.340034        -0.901825
 C         3.439772        -1.010777         0.164072
 O         1.998246        -1.243823        -0.107429
 C         3.418755         0.298667         0.936647
 O         1.988397         0.284858         1.335646
 H        -0.391520        -0.507676         0.707471
 H        -0.197350         1.162187         0.013896
 H        -0.352648        -0.267268        -1.088000
 H         2.031036         0.814744        -2.040882
 H         1.613047         1.952966        -0.866363
 H         4.033355         2.030026        -0.591367
 H         3.910918        -0.666367        -1.967688
 H         5.209666        -0.613841        -0.802790
 H         3.602939        -2.126417         0.536730
 H         4.122731         0.436023         1.783489
