19
Iteration:  3565charge 0 multiplicity 1
 C        -0.024315        -0.014776         0.041923
 C         1.451478         0.089429        -0.014268
 C         2.154879         1.158278        -0.865761
 C         3.611515         0.907446        -0.396340
 C         4.246156        -0.378656        -0.910387
 C         3.393430        -1.116774         0.208009
 O         2.121444        -1.252181        -0.372804
 C         3.262614         0.197132         1.012185
 O         1.944378         0.414505         1.216129
 H        -0.279823        -0.719291         0.771762
 H        -0.445434         0.940485         0.375162
 H        -0.615870        -0.153202        -0.875723
 H         1.902922         0.895018        -1.946479
 H         1.727720         2.243516        -0.873340
 H         4.183067         1.798763        -0.547476
 H         3.985610        -0.796703        -1.911162
 H         5.300749        -0.360518        -0.811369
 H         3.871804        -2.064277         0.625233
 H         3.892292         0.340099         1.877247
