19
Iteration:  2120
 C        -0.020566         0.044835        -0.091152
 C         1.490812         0.060049        -0.031305
 C         2.144627         1.091221        -0.875181
 C         3.615465         0.949112        -0.348593
 C         4.198494        -0.316099        -0.974780
 C         3.444311        -1.098552         0.145948
 O         2.042066        -1.259287        -0.231051
 C         3.288930         0.173976         0.990648
 O         1.971758         0.366246         1.305757
 H        -0.602347        -0.485747         0.746952
 H        -0.334753         1.108271         0.098095
 H        -0.578180        -0.439709        -0.912501
 H         2.136929         0.985060        -1.978434
 H         1.759140         2.087014        -0.715520
 H         4.146801         1.916675        -0.541040
 H         3.948681        -0.726202        -1.959548
 H         5.308693        -0.316625        -0.921517
 H         3.787231        -2.145910         0.430854
 H         3.986019         0.275592         1.859237
