19
Iteration:  3747
 C        -0.025609         0.066111         0.058183
 C         1.443982        -0.035568        -0.053338
 C         2.100338         1.091635        -0.899502
 C         3.626977         0.991047        -0.380225
 C         4.279571        -0.358595        -0.884919
 C         3.397512        -1.131162         0.166734
 O         2.044571        -1.290655        -0.375805
 C         3.348969         0.260040         0.998203
 O         1.939208         0.386044         1.229778
 H        -0.447284        -0.585888         0.838866
 H        -0.482715         1.027751         0.472519
 H        -0.570656        -0.308769        -0.921033
 H         2.278111         1.007743        -1.986849
 H         1.732631         2.123998        -0.554288
 H         4.127598         1.966819        -0.285413
 H         4.256086        -0.626101        -1.981385
 H         5.381067        -0.321618        -0.701906
 H         3.696403        -2.095260         0.596511
 H         3.948712         0.504040         1.874634
