19
Iteration:  3282charge 0 multiplicity 1
 C        -0.063385         0.122042        -0.070113
 C         1.424969         0.045127         0.078716
 C         2.101367         1.032579        -0.886253
 C         3.556771         0.936120        -0.420400
 C         4.273164        -0.312878        -0.941914
 C         3.413988        -1.135350         0.086361
 O         2.108066        -1.250572        -0.351101
 C         3.352001         0.172342         1.031536
 O         1.939614         0.372781         1.374209
 H        -0.507517        -0.673286         0.573460
 H        -0.461574         1.102794         0.074526
 H        -0.285430        -0.039069        -1.126524
 H         1.984639         0.951261        -1.928711
 H         1.946685         2.033727        -0.753332
 H         4.119368         1.866531        -0.320822
 H         4.323781        -0.575936        -2.031060
 H         5.351643        -0.304351        -0.568651
 H         3.773676        -2.199045         0.316949
 H         4.005260         0.384683         1.946806
