19
Iteration:  1130
 C        -0.043352         0.068848         0.007392
 C         1.426758        -0.012322         0.003319
 C         2.107548         1.011492        -0.899698
 C         3.610916         0.950387        -0.381330
 C         4.354428        -0.359018        -0.886266
 C         3.374028        -1.079193         0.081764
 O         2.027370        -1.267167        -0.404906
 C         3.351582         0.227853         1.029343
 O         1.981404         0.436576         1.312159
 H        -0.578785        -0.613537         0.708597
 H        -0.334288         1.119085         0.498182
 H        -0.545686        -0.108566        -0.965786
 H         2.043651         0.649522        -1.907420
 H         1.602048         2.030631        -0.849317
 H         4.094951         1.985940        -0.201472
 H         4.216386        -0.506352        -1.971946
 H         5.412122        -0.354656        -0.558204
 H         3.546540        -2.054720         0.423168
 H         3.945097         0.269616         1.933211
