19
Iteration:  1306charge 0 multiplicity 1
 C        -0.085875        -0.042267        -0.128144
 C         1.423338         0.051689        -0.030991
 C         2.173993         1.202616        -0.812236
 C         3.624044         0.917159        -0.397351
 C         4.172990        -0.355398        -0.992512
 C         3.393411        -1.125668         0.124932
 O         2.072444        -1.192338        -0.237463
 C         3.367904         0.132544         1.027773
 O         1.994694         0.423799         1.329080
 H        -0.363159        -1.018278         0.353265
 H        -0.708220         0.744111         0.424471
 H        -0.381699        -0.117018        -1.219821
 H         2.058492         1.022954        -1.873941
 H         1.792847         2.266123        -0.569815
 H         4.298461         1.820511        -0.555222
 H         4.060988        -0.672080        -2.095238
 H         5.207872        -0.388823        -0.698383
 H         3.637432        -2.075547         0.571477
 H         4.208414         0.176203         1.788672
