19
Iteration:  3777charge 0 multiplicity 1
 C        -0.103172         0.044090        -0.133308
 C         1.501217         0.062826         0.063239
 C         2.145166         1.011756        -0.866071
 C         3.649014         1.006854        -0.417443
 C         4.208305        -0.294699        -0.989221
 C         3.383671        -1.145113         0.110404
 O         2.036451        -1.209460        -0.179100
 C         3.374984         0.190341         1.008006
 O         1.966692         0.323208         1.314325
 H        -0.404517        -0.862183         0.362225
 H        -0.669060         0.857040         0.256249
 H        -0.361573        -0.057070        -1.187672
 H         2.249675         0.799101        -1.946042
 H         1.787724         2.123487        -0.997695
 H         4.076771         2.041496        -0.364479
 H         4.139483        -0.394561        -2.011547
 H         5.265226        -0.265996        -0.755322
 H         3.671200        -2.142708         0.419292
 H         4.007245         0.391496         1.847303
