19
Iteration:   685
 C        -0.088525         0.081274         0.000671
 C         1.454097         0.019402         0.015103
 C         2.127522         1.019703        -0.949683
 C         3.650331         0.984034        -0.460954
 C         4.308135        -0.330337        -0.862175
 C         3.410999        -1.047868         0.114862
 O         2.004916        -1.267593        -0.292396
 C         3.328377         0.216544         0.975476
 O         1.984738         0.365027         1.323388
 H        -0.662559        -0.775339         0.573626
 H        -0.501316         0.950492         0.501420
 H        -0.413891        -0.068927        -1.022981
 H         1.924682         0.728507        -1.972489
 H         1.748996         2.049449        -0.798811
 H         4.181021         1.914345        -0.598824
 H         4.376144        -0.569402        -1.919744
 H         5.299211        -0.495465        -0.407598
 H         3.608370        -2.078655         0.395826
 H         4.037292         0.299297         1.838947
