19
Iteration:  3162
 C        -0.064129         0.114482        -0.001644
 C         1.428660         0.048253        -0.038302
 C         2.156780         1.092432        -0.897845
 C         3.602052         0.898999        -0.318786
 C         4.308527        -0.235866        -0.886754
 C         3.399469        -1.149837         0.086515
 O         2.019998        -1.276239        -0.333757
 C         3.322490         0.166135         0.963943
 O         1.969532         0.338607         1.291928
 H        -0.349671        -0.501204         0.962122
 H        -0.302988         1.182661         0.207724
 H        -0.643943        -0.176037        -0.934484
 H         2.142823         0.795998        -1.936736
 H         1.634008         2.002111        -0.877809
 H         4.108716         1.894552        -0.247033
 H         4.261972        -0.359531        -2.009938
 H         5.427297        -0.204526        -0.592283
 H         3.762529        -2.203963         0.369281
 H         4.001113         0.178028         1.924700
