19
Iteration:  4868
 C        -0.015861        -0.073087        -0.075755
 C         1.406671         0.070934         0.047966
 C         2.211339         1.165608        -0.831799
 C         3.647008         0.959587        -0.414552
 C         4.237887        -0.328077        -0.972880
 C         3.400076        -1.133105         0.107922
 O         2.026833        -1.217523        -0.298191
 C         3.317649         0.196952         0.992138
 O         1.922315         0.388106         1.316676
 H        -0.212435        -0.806007         0.698646
 H        -0.230497         0.984423         0.075086
 H        -0.337367        -0.281973        -1.116819
 H         2.260004         1.109434        -1.892030
 H         1.767202         2.184063        -0.636719
 H         4.308924         1.795902        -0.216682
 H         3.630456        -0.695332        -1.859584
 H         5.368284        -0.666886        -1.081411
 H         3.771581        -2.047220         0.584432
 H         3.749955         0.217000         1.997753
