19
Iteration:  1511charge 0 multiplicity 1
 C        -0.072857         0.125651         0.070042
 C         1.421870        -0.003608        -0.012427
 C         2.255740         1.071554        -0.969252
 C         3.616246         1.025242        -0.357095
 C         4.298050        -0.272002        -0.909627
 C         3.393760        -1.164599         0.134492
 O         2.001347        -1.325633        -0.335726
 C         3.315576         0.228602         0.999215
 O         1.943498         0.340260         1.244095
 H        -0.332172        -0.684082         0.678624
 H        -0.328126         1.123165         0.527087
 H        -0.634316        -0.012571        -0.924445
 H         2.110387         0.755843        -1.969602
 H         1.629889         1.949178        -0.824106
 H         4.170650         2.018653        -0.392920
 H         4.081675        -0.467643        -2.005618
 H         5.373460        -0.520159        -0.768788
 H         3.896164        -1.979534         0.766219
 H         3.895372         0.274541         1.995012
