19
Iteration:  4877charge 0 multiplicity 1
 C        -0.042257        -0.024272        -0.078817
 C         1.500889         0.087982         0.003584
 C         2.199432         1.167070        -0.795194
 C         3.697183         0.987125        -0.381350
 C         4.179005        -0.405975        -1.009598
 C         3.426943        -1.129941         0.108100
 O         2.067602        -1.228708        -0.278347
 C         3.325781         0.194922         1.032766
 O         1.843880         0.387691         1.302699
 H        -0.452642        -0.782707         0.654138
 H        -0.775149         0.781940         0.179726
 H        -0.284187        -0.348831        -1.092882
 H         2.000307         0.879241        -1.842165
 H         1.828371         2.196597        -0.508254
 H         4.431895         1.812604        -0.603125
 H         3.833951        -0.487868        -2.001444
 H         5.330195        -0.445175        -1.031351
 H         3.783797        -2.108717         0.486099
 H         3.997841         0.264782         1.903607
