19
Iteration:  2590
 C        -0.058983         0.023382        -0.070310
 C         1.511489         0.122119         0.043435
 C         2.144250         1.069891        -0.929647
 C         3.599311         0.978964        -0.350675
 C         4.232342        -0.303360        -0.937892
 C         3.418028        -1.110347         0.069023
 O         2.002064        -1.313165        -0.166717
 C         3.304989         0.191219         0.878965
 O         1.982042         0.405177         1.316794
 H        -0.414955        -0.734486         0.607575
 H        -0.478848         0.914920         0.197390
 H        -0.342353        -0.381112        -1.025333
 H         2.211130         0.636140        -1.922083
 H         1.816573         2.130168        -0.888594
 H         4.270498         1.781119        -0.300599
 H         4.172170        -0.396838        -2.090632
 H         5.248718        -0.473512        -0.607455
 H         3.815974        -2.101728         0.444656
 H         3.857928         0.318723         1.838021
