19
Iteration:  4236
 C        -0.067475         0.023341        -0.043727
 C         1.421079         0.081668        -0.013693
 C         2.189329         1.047197        -0.879966
 C         3.644492         1.014030        -0.356171
 C         4.230846        -0.266658        -0.920722
 C         3.380785        -1.152531         0.090549
 O         1.995116        -1.287668        -0.265105
 C         3.328529         0.196858         0.928063
 O         2.020437         0.365799         1.312269
 H        -0.431425        -0.770273         0.674104
 H        -0.509876         1.045074         0.160406
 H        -0.433613        -0.320190        -1.010716
 H         2.390807         0.835871        -1.920876
 H         1.871718         2.139149        -0.749880
 H         4.277861         1.921522        -0.392015
 H         3.918888        -0.397411        -1.881067
 H         5.244632        -0.415259        -0.644634
 H         3.768853        -2.065564         0.521959
 H         3.843914         0.274059         1.920563
