19
Iteration:  4353charge 0 multiplicity 1
 C        -0.088665         0.043875        -0.135703
 C         1.466366         0.017741        -0.058164
 C         2.169095         1.119056        -0.924455
 C         3.631320         0.950739        -0.389333
 C         4.141780        -0.330677        -1.009009
 C         3.448455        -1.099444         0.218384
 O         2.034820        -1.243144        -0.245041
 C         3.363243         0.177900         1.073129
 O         1.973088         0.342203         1.352439
 H        -0.326897        -0.790101         0.465398
 H        -0.161322         1.020872         0.335806
 H        -0.439170         0.034937        -1.160259
 H         2.175294         1.024410        -1.996039
 H         1.766893         2.084485        -0.594156
 H         4.142443         1.879374        -0.417568
 H         3.725817        -0.633274        -2.123317
 H         5.268485        -0.325474        -0.960135
 H         3.834937        -2.036422         0.598105
 H         4.028842         0.427082         1.925224
