19
Iteration:  3352charge 0 multiplicity 1
 C        -0.146224        -0.118214        -0.079425
 C         1.479224         0.150180         0.038022
 C         2.141757         1.157979        -0.909462
 C         3.657861         0.919673        -0.345545
 C         4.278041        -0.371544        -0.933640
 C         3.335561        -1.124186         0.155236
 O         2.006596        -1.160123        -0.347779
 C         3.431617         0.168956         0.991337
 O         1.999979         0.406356         1.347081
 H        -0.440990        -0.736109         0.796014
 H        -0.873643         0.812141        -0.157758
 H        -0.301853        -0.576750        -1.095066
 H         1.853233         1.033414        -1.955857
 H         1.576351         2.093096        -0.689690
 H         4.315726         1.802661        -0.450785
 H         4.183469        -0.754095        -1.969868
 H         5.419278        -0.394740        -0.797198
 H         3.650256        -2.016359         0.599249
 H         4.103614         0.234575         1.821650
