19
Iteration:  4701charge 0 multiplicity 1
 C        -0.133714        -0.004260         0.055039
 C         1.471760         0.037091        -0.022689
 C         2.236761         1.164343        -0.904459
 C         3.643963         0.993717        -0.355392
 C         4.196448        -0.323039        -0.883393
 C         3.390004        -1.158415         0.101952
 O         2.063551        -1.308599        -0.349783
 C         3.367662         0.218676         0.944670
 O         1.934184         0.359910         1.267661
 H        -0.613129        -0.605089         0.848114
 H        -0.207412         1.080642         0.232219
 H        -0.721683        -0.072945        -0.831478
 H         2.210642         0.943994        -1.984202
 H         1.793982         2.133372        -0.832044
 H         4.037777         1.951821        -0.156933
 H         4.043694        -0.519885        -1.921428
 H         5.438341        -0.404861        -0.715105
 H         3.680745        -2.005615         0.713283
 H         4.021853         0.359425         1.811890
