19
Iteration:  2613charge 0 multiplicity 1
 C        -0.147491        -0.014887         0.089733
 C         1.458980         0.008584        -0.058507
 C         2.203023         1.055397        -0.969459
 C         3.659915         0.978291        -0.392837
 C         4.332799        -0.312578        -0.913675
 C         3.404016        -1.095811         0.176921
 O         2.002252        -1.220698        -0.326705
 C         3.358700         0.239987         0.966244
 O         1.922578         0.419202         1.269115
 H        -0.430770        -0.892255         0.704831
 H        -0.358526         0.835522         0.664237
 H        -0.705062        -0.179946        -0.798673
 H         2.171888         0.923503        -2.034090
 H         1.937034         2.042309        -0.571155
 H         4.132053         1.878643        -0.595428
 H         4.161834        -0.789629        -1.949674
 H         5.333815        -0.562793        -0.586886
 H         3.623248        -2.175280         0.410907
 H         3.819968         0.268108         1.975409
