19
Iteration:  4680charge 0 multiplicity 1
 C        -0.007965         0.035956         0.121166
 C         1.445768         0.109251        -0.088806
 C         2.180763         1.055562        -0.946603
 C         3.625743         0.954920        -0.339840
 C         4.328120        -0.317008        -0.897226
 C         3.431917        -1.091581         0.044847
 O         1.982741        -1.250984        -0.335077
 C         3.301461         0.172626         1.036860
 O         1.918127         0.366200         1.247873
 H        -0.241494        -0.705519         0.917701
 H        -0.586001         0.964141         0.196362
 H        -0.486545        -0.308551        -0.756916
 H         1.953513         0.934504        -1.984431
 H         1.655512         1.957022        -0.675724
 H         4.175103         1.881681        -0.365065
 H         4.258665        -0.574290        -1.926445
 H         5.444924        -0.288495        -0.506373
 H         3.584524        -2.066317         0.451219
 H         3.880266         0.152220         1.958154
