19
Iteration:  4226charge 0 multiplicity 1
 C        -0.073213         0.005006        -0.123153
 C         1.490588         0.063023         0.040935
 C         2.238255         1.035827        -0.871111
 C         3.638853         0.970517        -0.389794
 C         4.179987        -0.293645        -0.936099
 C         3.385764        -1.054630         0.108246
 O         1.981959        -1.240499        -0.285061
 C         3.338147         0.175777         0.978382
 O         1.979158         0.367933         1.371613
 H        -0.353481        -0.830380         0.624620
 H        -0.529526         1.017386         0.186727
 H        -0.298560        -0.200150        -1.165412
 H         1.824932         0.748436        -1.854006
 H         1.787060         2.052947        -0.675135
 H         4.208277         1.959590        -0.474734
 H         4.106349        -0.589120        -1.924254
 H         5.279090        -0.482794        -0.869878
 H         3.781202        -2.023905         0.392908
 H         4.156884         0.313194         1.775144
