19
Iteration:   482charge 0 multiplicity 1
 C        -0.078648        -0.095158         0.000506
 C         1.468131         0.108016        -0.020045
 C         2.131238         1.172486        -0.831901
 C         3.637849         0.886149        -0.365993
 C         4.281073        -0.402469        -1.038161
 C         3.461420        -1.081191         0.191088
 O         2.040572        -1.199949        -0.246819
 C         3.311609         0.144765         0.965218
 O         1.920965         0.454289         1.222686
 H        -0.335138        -0.892580         0.638167
 H        -0.566424         0.972578         0.296040
 H        -0.477373        -0.186269        -0.973159
 H         2.007879         1.069345        -1.908608
 H         1.835477         2.194320        -0.464263
 H         4.250641         1.838542        -0.295921
 H         3.899172        -0.749587        -2.030138
 H         5.349527        -0.314118        -1.019341
 H         3.778723        -2.010513         0.601344
 H         4.042771         0.046160         1.816966
