19
Iteration:  4733charge 0 multiplicity 1
 C         0.047278        -0.038965        -0.137734
 C         1.454731         0.145093         0.078118
 C         2.163182         1.162775        -0.822074
 C         3.573059         0.951263        -0.435372
 C         4.240881        -0.379174        -0.980917
 C         3.397786        -1.156708         0.081822
 O         2.026494        -1.243207        -0.283724
 C         3.340665         0.192856         0.934868
 O         1.933257         0.383043         1.405062
 H        -0.440422        -0.809095         0.443067
 H        -0.492424         0.819006         0.263239
 H        -0.215165        -0.058865        -1.163526
 H         1.860928         0.765186        -1.811529
 H         1.769138         2.142516        -0.637291
 H         4.121002         1.888107        -0.261376
 H         3.989167        -0.599623        -1.983517
 H         5.408877        -0.390222        -0.681191
 H         3.656481        -2.052841         0.645376
 H         4.097515         0.358889         1.707470
