19
Iteration:  2324
 C        -0.099570         0.031448        -0.028080
 C         1.393347         0.117961         0.008640
 C         2.129341         1.084523        -0.895619
 C         3.650425         0.974370        -0.354648
 C         4.284279        -0.262311        -0.946756
 C         3.365066        -1.100641         0.039089
 O         2.033107        -1.340099        -0.240052
 C         3.380724         0.167701         0.966829
 O         1.986251         0.375563         1.297303
 H        -0.293280        -0.576589         0.851720
 H        -0.513162         1.016366        -0.036565
 H        -0.391467        -0.462204        -0.915463
 H         2.160780         0.670543        -1.952987
 H         1.927418         2.190460        -0.843204
 H         4.241549         1.929059        -0.217996
 H         4.224078        -0.441242        -2.016788
 H         5.351911        -0.444459        -0.545620
 H         3.574000        -2.060565         0.424707
 H         3.885183         0.278917         1.947176
