19
Iteration:  4884charge 0 multiplicity 1
 C        -0.083794        -0.013826        -0.095932
 C         1.473001         0.108157        -0.030429
 C         2.216180         1.165026        -0.828464
 C         3.692179         0.928097        -0.344766
 C         4.143833        -0.394823        -1.016435
 C         3.431539        -1.086336         0.129725
 O         2.063201        -1.241324        -0.274903
 C         3.348611         0.197632         1.036447
 O         1.913983         0.367753         1.328755
 H        -0.371094        -0.952870         0.460387
 H        -0.650754         0.945137         0.178092
 H        -0.327199        -0.474752        -1.044638
 H         1.883033         1.071944        -1.935083
 H         1.797907         2.091191        -0.500549
 H         4.183623         1.939725        -0.498382
 H         4.013519        -0.578065        -2.131578
 H         5.150345        -0.423311        -0.841020
 H         3.735744        -2.089960         0.457518
 H         4.015980         0.427652         1.881018
