19
Iteration:  2966
 C        -0.019784        -0.040386        -0.117277
 C         1.484053         0.143164        -0.058159
 C         2.206589         1.223175        -0.817274
 C         3.674905         0.990747        -0.320046
 C         4.165985        -0.360796        -1.047457
 C         3.431946        -1.110570         0.169677
 O         1.996369        -1.317268        -0.165161
 C         3.296700         0.193165         0.988036
 O         1.923246         0.339726         1.252415
 H        -0.375660        -0.725683         0.709062
 H        -0.505088         0.957833        -0.028261
 H        -0.360358        -0.521491        -1.057862
 H         2.211615         1.161169        -1.933632
 H         1.775879         2.293438        -0.380766
 H         4.308182         1.891942        -0.376946
 H         3.825819        -0.549045        -2.044024
 H         5.269557        -0.710220        -1.075957
 H         3.969264        -2.001803         0.478292
 H         4.001167         0.207340         1.832974
