19
Iteration:   256
 C        -0.046277        -0.136199        -0.078279
 C         1.445598         0.071017        -0.007329
 C         2.165788         1.269476        -0.886759
 C         3.623456         0.919740        -0.432567
 C         4.191109        -0.443617        -0.973155
 C         3.424032        -1.109381         0.186534
 O         1.951297        -1.248960        -0.213913
 C         3.408648         0.288325         0.939910
 O         1.987502         0.417923         1.312462
 H        -0.317942        -0.850972         0.617371
 H        -0.713231         0.831038        -0.042625
 H        -0.064636        -0.686224        -0.984226
 H         2.118957         1.169193        -1.984026
 H         1.765474         2.178335        -0.406661
 H         4.331374         1.816980        -0.274840
 H         3.976780        -0.742254        -2.025911
 H         5.297146        -0.408778        -0.780490
 H         3.717337        -2.103010         0.652630
 H         4.038707         0.608281         1.757983
