19
Iteration:  3020charge 0 multiplicity 1
 C        -0.102409        -0.019963        -0.010648
 C         1.433722         0.122104         0.013201
 C         2.152971         1.096465        -0.965740
 C         3.651966         0.966582        -0.415806
 C         4.329014        -0.350111        -0.894810
 C         3.396741        -1.129183         0.110971
 O         2.001467        -1.149083        -0.323157
 C         3.318319         0.181333         0.980505
 O         1.954707         0.306522         1.345102
 H        -0.556543        -0.805100         0.625744
 H        -0.485642         0.846355         0.547817
 H        -0.527444         0.004224        -1.034903
 H         2.052179         0.828451        -2.035721
 H         1.800052         2.186352        -0.816083
 H         4.377341         1.800642        -0.344104
 H         4.540489        -0.653450        -1.864726
 H         5.292825        -0.399823        -0.308999
 H         3.777148        -2.153382         0.302151
 H         3.985451         0.247524         1.847999
