19
Iteration:  2775
 C        -0.034539        -0.075741         0.097200
 C         1.482610         0.115885        -0.058408
 C         2.267473         1.083873        -0.979624
 C         3.615882         0.977099        -0.292809
 C         4.291952        -0.355163        -0.906997
 C         3.322567        -1.126008         0.127730
 O         1.995005        -1.222824        -0.396486
 C         3.297116         0.185100         0.976346
 O         1.939094         0.472219         1.289829
 H        -0.302888        -0.724121         0.962833
 H        -0.623831         0.786665         0.322051
 H        -0.601171        -0.620439        -0.657376
 H         2.186669         0.709695        -2.039037
 H         1.820257         2.151785        -0.852543
 H         4.235153         1.821119        -0.439170
 H         4.215585        -0.579515        -2.022212
 H         5.298986        -0.518710        -0.665248
 H         3.645358        -2.038689         0.736403
 H         3.984552         0.195301         1.877870
