19
Iteration:  2085
 C        -0.095492         0.067783         0.061147
 C         1.360293         0.089671        -0.018952
 C         2.158301         1.066383        -0.939250
 C         3.572141         0.912013        -0.428988
 C         4.397982        -0.318176        -0.846230
 C         3.417378        -1.078761         0.152692
 O         2.031316        -1.249016        -0.355924
 C         3.340495         0.227900         0.912440
 O         1.956513         0.325334         1.287097
 H        -0.228045        -0.767833         0.856430
 H        -0.374112         0.985969         0.548036
 H        -0.576649         0.124110        -0.889775
 H         2.096954         0.729105        -1.948798
 H         1.671560         1.914642        -0.752679
 H         4.238830         1.883670        -0.492783
 H         4.330255        -0.599315        -1.823187
 H         5.416307        -0.350821        -0.408069
 H         3.540203        -2.036800         0.542980
 H         3.986333         0.120025         1.831949
