19
Iteration:  2568charge 0 multiplicity 1
 C        -0.076535         0.007535        -0.161546
 C         1.534304         0.019916         0.036923
 C         2.111463         1.053804        -0.858710
 C         3.591587         0.990992        -0.459730
 C         4.188316        -0.375388        -0.984411
 C         3.411248        -1.049982         0.131464
 O         1.991505        -1.242684        -0.237395
 C         3.373184         0.209576         1.065815
 O         2.033677         0.384364         1.379728
 H        -0.699759        -0.527164         0.529756
 H        -0.332315         0.994329        -0.190390
 H        -0.135508        -0.474279        -1.123496
 H         2.086664         0.820111        -1.919296
 H         1.716136         2.065368        -0.655394
 H         4.253411         1.801773        -0.477578
 H         3.837943        -0.475130        -2.064749
 H         5.260414        -0.346736        -1.004365
 H         3.658865        -2.052162         0.581616
 H         4.071773         0.474195         1.902502
