19
Iteration:  3788charge 0 multiplicity 1
 C        -0.086869        -0.043541        -0.154189
 C         1.419303         0.089795         0.046359
 C         2.174025         1.077003        -0.892631
 C         3.601675         0.938266        -0.313964
 C         4.226992        -0.318772        -0.984547
 C         3.417882        -1.053297         0.090566
 O         1.941709        -1.263240        -0.244801
 C         3.430208         0.261677         1.018008
 O         2.045190         0.380924         1.352421
 H        -0.470724        -0.987021         0.152019
 H        -0.530084         0.846270         0.207951
 H        -0.103730         0.038874        -1.225734
 H         2.040657         0.607803        -1.890764
 H         1.492421         2.003419        -0.688066
 H         4.276859         1.821234        -0.434075
 H         3.915252        -0.597041        -1.922266
 H         5.264833        -0.516557        -0.740868
 H         3.779821        -2.044080         0.323088
 H         4.068389         0.360127         1.874110
