19
Iteration:   559
 C        -0.096227         0.133054         0.083552
 C         1.440673        -0.015298        -0.023149
 C         2.144703         1.014969        -0.937245
 C         3.633201         1.002014        -0.376939
 C         4.294488        -0.327842        -0.930779
 C         3.432251        -1.100090         0.100305
 O         2.074868        -1.304705        -0.315053
 C         3.295668         0.210190         1.017943
 O         1.925086         0.360612         1.249576
 H        -0.488253        -0.591673         0.690702
 H        -0.222578         1.233320         0.498761
 H        -0.676794         0.091904        -0.812908
 H         2.275145         0.690127        -1.996893
 H         1.607340         1.986874        -0.889062
 H         4.224429         1.976188        -0.364928
 H         4.202806        -0.522448        -2.031737
 H         5.340117        -0.366841        -0.647951
 H         3.845874        -1.985249         0.583045
 H         3.876622         0.408152         1.895375
