19
Iteration:  2480
 C        -0.076408         0.044629         0.071098
 C         1.422211         0.060831        -0.031462
 C         2.179105         1.019974        -1.002334
 C         3.570821         0.989930        -0.422853
 C         4.346051        -0.316818        -0.845804
 C         3.440283        -1.070492         0.084509
 O         2.019615        -1.229057        -0.283317
 C         3.376176         0.167174         0.951206
 O         1.924002         0.351658         1.319600
 H        -0.425486        -0.704598         0.764506
 H        -0.453792         0.971232         0.557616
 H        -0.644876        -0.033906        -0.892926
 H         1.961650         0.765310        -2.071747
 H         1.603136         1.999665        -0.953700
 H         4.137396         1.926078        -0.320367
 H         4.240186        -0.672769        -1.926252
 H         5.406839        -0.399727        -0.492380
 H         3.693676        -2.125958         0.354552
 H         4.008009         0.395769         1.830917
