19
Iteration:  1526charge 0 multiplicity 1
 C        -0.055318         0.082459         0.098194
 C         1.433310         0.096457        -0.095666
 C         2.145617         1.062653        -0.972206
 C         3.613638         0.935133        -0.327212
 C         4.285277        -0.315262        -0.856113
 C         3.407162        -1.116210         0.090983
 O         2.054395        -1.301295        -0.308155
 C         3.308905         0.169267         0.963725
 O         1.943531         0.368039         1.279563
 H        -0.570323        -0.588185         0.862256
 H        -0.376687         1.036989         0.384651
 H        -0.611712        -0.189175        -0.763975
 H         2.186986         0.825160        -2.075303
 H         1.938786         2.242364        -0.957979
 H         4.241135         1.868579        -0.266457
 H         4.351132        -0.599455        -1.970801
 H         5.314922        -0.155825        -0.509557
 H         3.678613        -2.133359         0.217053
 H         3.937541         0.471051         1.800160
