19
Iteration:  1541
 C        -0.111312         0.014300         0.043176
 C         1.463522         0.063394         0.020656
 C         2.169606         1.099789        -0.928978
 C         3.585735         0.947455        -0.421517
 C         4.358151        -0.368016        -0.880684
 C         3.428843        -1.145253         0.070264
 O         2.007517        -1.146198        -0.337071
 C         3.295903         0.166031         0.992447
 O         1.952818         0.388643         1.273756
 H        -0.179789        -0.584000         0.950950
 H        -0.435153         1.108156         0.222983
 H        -0.461482        -0.388259        -0.940459
 H         2.060742         0.739246        -1.978420
 H         1.659515         1.970512        -0.759038
 H         4.061510         1.892780        -0.333336
 H         4.373918        -0.591306        -1.910843
 H         5.309981        -0.577751        -0.367298
 H         3.686509        -2.069765         0.643312
 H         3.993392         0.119630         1.818907
