19
Iteration:  1218
 C        -0.080389        -0.060267        -0.004450
 C         1.451871         0.067951        -0.004732
 C         2.172955         1.156782        -0.923899
 C         3.656623         1.009651        -0.450093
 C         4.265782        -0.412566        -0.846017
 C         3.332986        -1.094493         0.107681
 O         2.006893        -1.157156        -0.328189
 C         3.352561         0.194212         0.988596
 O         1.966158         0.333106         1.331155
 H        -0.307347        -0.762502         0.751375
 H        -0.634780         0.945528         0.218565
 H        -0.164762        -0.570155        -0.989544
 H         2.096827         0.944432        -1.959544
 H         1.890132         2.219137        -0.755277
 H         4.437148         1.824291        -0.360884
 H         3.959555        -0.683882        -1.886284
 H         5.296940        -0.503603        -0.598717
 H         3.660706        -2.027367         0.378514
 H         4.086412         0.293026         1.833414
