19
Iteration:  1441
 C        -0.081782        -0.107175        -0.087671
 C         1.437592         0.126581         0.015873
 C         2.205431         1.152247        -0.852125
 C         3.717713         0.934936        -0.406886
 C         4.189399        -0.406431        -0.969569
 C         3.411841        -1.121308         0.118940
 O         2.002966        -1.217196        -0.304476
 C         3.314875         0.261955         1.037443
 O         1.959922         0.396094         1.344465
 H        -0.194388        -1.101650         0.593716
 H        -0.533743         0.852623         0.284216
 H        -0.415678        -0.266019        -1.115225
 H         2.108184         1.196021        -1.966588
 H         1.877985         2.123495        -0.489056
 H         4.367476         1.804656        -0.478775
 H         3.977391        -0.643569        -2.010086
 H         5.327669        -0.389598        -0.981164
 H         3.479985        -2.171715         0.478336
 H         3.978693         0.471739         1.860606
