19
Iteration:  4614
 C        -0.060450        -0.016227        -0.107665
 C         1.447677         0.072204        -0.063121
 C         2.195982         1.198552        -0.866721
 C         3.616019         0.981960        -0.327849
 C         4.157449        -0.385857        -1.042905
 C         3.447465        -1.153800         0.099505
 O         2.052670        -1.308441        -0.196508
 C         3.313105         0.238930         1.002764
 O         1.942071         0.375424         1.340260
 H        -0.386146        -0.751131         0.653012
 H        -0.512121         0.981390         0.054916
 H        -0.448347        -0.231939        -1.103608
 H         2.272535         1.235176        -1.964912
 H         1.850578         2.093378        -0.397458
 H         4.323372         1.760737        -0.192196
 H         3.852387        -0.670334        -1.985761
 H         5.226064        -0.361410        -0.863017
 H         4.155764        -1.914733         0.437534
 H         4.061209         0.379825         1.820767
