19
Iteration:  3882
 C        -0.132569         0.031181         0.006084
 C         1.454497         0.051835         0.013745
 C         2.150451         1.098259        -0.968463
 C         3.652931         1.030236        -0.353550
 C         4.342338        -0.272568        -0.883268
 C         3.366966        -1.142902         0.002442
 O         1.976037        -1.274405        -0.240663
 C         3.371110         0.160772         0.916805
 O         1.959413         0.336640         1.344105
 H        -0.473756        -0.610168         0.939404
 H        -0.428589         1.120764         0.026519
 H        -0.474857        -0.435265        -0.931216
 H         2.226596         0.721224        -1.972490
 H         1.807539         2.019863        -0.886234
 H         4.202856         1.974179        -0.191037
 H         4.227224        -0.499934        -1.994814
 H         5.331287        -0.173710        -0.488907
 H         3.675975        -2.097303         0.486468
 H         4.187858         0.325822         1.637345
