19
Iteration:  1996charge 0 multiplicity 1
 C         0.021215         0.070553        -0.138346
 C         1.431370         0.079271         0.087839
 C         2.113544         1.028135        -0.840600
 C         3.584128         0.980236        -0.487923
 C         4.235810        -0.337591        -0.974101
 C         3.378102        -1.084039         0.172839
 O         2.040475        -1.306603        -0.250111
 C         3.324779         0.201036         0.978135
 O         2.012880         0.373102         1.345066
 H        -0.595008        -0.622593         0.490301
 H        -0.540252         1.059087        -0.091642
 H        -0.177720        -0.282800        -1.210811
 H         2.071235         0.820364        -1.877730
 H         1.818251         2.013627        -0.659629
 H         4.172720         1.992132        -0.249714
 H         3.853484        -0.532011        -1.962455
 H         5.305864        -0.264436        -0.905686
 H         3.895930        -1.923023         0.639023
 H         3.997611         0.246355         1.824889
