19
Iteration:  3259charge 0 multiplicity 1
 C        -0.039286        -0.024905        -0.149729
 C         1.434118         0.042651         0.021338
 C         2.153409         1.141161        -0.846282
 C         3.649891         1.004203        -0.356406
 C         4.202182        -0.353167        -0.932978
 C         3.412555        -1.061804         0.109399
 O         1.953530        -1.217024        -0.226295
 C         3.361289         0.195386         0.940499
 O         2.007732         0.323340         1.341259
 H        -0.303986        -1.034845         0.241427
 H        -0.599186         0.802549         0.197823
 H        -0.208990         0.049286        -1.208056
 H         2.032662         1.084619        -1.946671
 H         1.854970         2.143266        -0.669333
 H         4.415181         1.804833        -0.323208
 H         3.943079        -0.726366        -1.984408
 H         5.299337        -0.437608        -0.792039
 H         3.645271        -2.097528         0.560219
 H         4.170216         0.215870         1.746217
