19
Iteration:  3651
 C        -0.084108         0.108662        -0.115882
 C         1.527080         0.042753         0.011752
 C         2.166202         1.102476        -0.868534
 C         3.598919         0.984956        -0.388439
 C         4.127409        -0.364232        -0.985415
 C         3.469452        -1.037580         0.218535
 O         2.107452        -1.333850        -0.235285
 C         3.348677         0.255037         0.975158
 O         1.923406         0.304947         1.305053
 H        -0.634119        -0.628352         0.475714
 H        -0.523479         1.115595         0.188396
 H        -0.204286        -0.238220        -1.213932
 H         2.040488         0.960872        -1.957857
 H         1.760266         2.065668        -0.505270
 H         4.175722         1.853883        -0.626768
 H         3.772331        -0.755622        -2.050537
 H         5.220889        -0.642580        -0.893783
 H         3.778034        -2.041169         0.587615
 H         4.002569         0.490298         1.804930
