19
Iteration:  1721charge 0 multiplicity 1
 C        -0.061965        -0.015246        -0.192505
 C         1.417209         0.040171         0.039775
 C         2.177082         1.077842        -0.867387
 C         3.593687         0.918143        -0.403257
 C         4.190279        -0.375027        -0.934896
 C         3.404365        -1.101978         0.170196
 O         1.966711        -1.211739        -0.213572
 C         3.418260         0.248492         0.963167
 O         2.059373         0.414497         1.338423
 H        -0.480911        -0.837940         0.523870
 H        -0.479020         0.960877         0.044729
 H        -0.289918        -0.433571        -1.161198
 H         1.982108         0.923026        -1.867328
 H         1.740808         2.028752        -0.598072
 H         4.135300         1.988461        -0.480307
 H         4.021501        -0.490576        -2.067188
 H         5.255299        -0.226494        -0.907874
 H         3.551008        -2.150164         0.564619
 H         4.203374         0.311727         1.741858
