19
Iteration:  3642charge 0 multiplicity 1
 C        -0.059806         0.075566        -0.106541
 C         1.420893        -0.007792        -0.028854
 C         2.173135         1.082334        -0.906532
 C         3.601363         1.002148        -0.448066
 C         4.169345        -0.407816        -0.978846
 C         3.451106        -1.076391         0.185468
 O         2.090424        -1.270810        -0.258251
 C         3.346110         0.229585         1.055252
 O         1.971799         0.344588         1.367678
 H        -0.608702        -0.660805         0.407166
 H        -0.442534         1.104427         0.075166
 H        -0.457231         0.007670        -1.133647
 H         2.083843         0.981847        -2.043864
 H         1.633906         2.074299        -0.499176
 H         4.150324         1.947219        -0.495659
 H         3.849284        -0.728664        -2.025575
 H         5.239445        -0.291696        -0.881430
 H         3.991619        -1.890119         0.767673
 H         4.064113         0.323237         1.905547
