19
Iteration:  1611
 C        -0.053951         0.021194        -0.094880
 C         1.417130         0.013259        -0.017448
 C         2.255440         1.112411        -0.857282
 C         3.635428         1.029560        -0.338030
 C         4.122842        -0.396948        -1.000970
 C         3.369178        -1.103846         0.129032
 O         2.040656        -1.309807        -0.213361
 C         3.378830         0.216528         0.951029
 O         1.972092         0.408357         1.335364
 H        -0.470765        -0.682908         0.668843
 H        -0.343006         1.045832        -0.054055
 H        -0.230266        -0.253595        -1.144633
 H         2.130101         0.859671        -1.863424
 H         1.835470         2.126538        -0.663738
 H         4.190918         2.057436        -0.342833
 H         3.844834        -0.522305        -2.117443
 H         5.177314        -0.504438        -0.792056
 H         3.885775        -2.049646         0.374152
 H         3.997919         0.462870         1.816890
