19
Iteration:  3832
 C        -0.115385        -0.044188         0.038538
 C         1.462131         0.045265        -0.017668
 C         2.147245         1.213622        -0.874606
 C         3.653801         0.972856        -0.408867
 C         4.245207        -0.458251        -0.929509
 C         3.472121        -1.117966         0.162624
 O         2.036703        -1.210354        -0.341444
 C         3.267934         0.244117         0.978755
 O         1.974234         0.332297         1.250914
 H        -0.107331        -0.946211         0.559781
 H        -0.420115         0.907762         0.391475
 H        -0.470007        -0.179175        -0.977766
 H         2.158028         1.104942        -2.005211
 H         2.025894         2.427501        -0.513682
 H         4.149132         1.985949        -0.311731
 H         3.858726        -0.617391        -1.894613
 H         5.308344        -0.519404        -0.645798
 H         3.657018        -2.065572         0.651651
 H         3.790154         0.507089         1.882338
