19
Iteration:  1113
 C        -0.101302        -0.010502         0.093490
 C         1.436502         0.127693        -0.018434
 C         2.186671         1.063947        -0.927628
 C         3.614974         0.977128        -0.401958
 C         4.280029        -0.350540        -0.805696
 C         3.390245        -1.168343         0.090802
 O         2.001066        -1.181886        -0.369998
 C         3.315331         0.224455         0.919457
 O         1.973445         0.342949         1.290796
 H        -0.289916        -0.936899         0.581770
 H        -0.560697         0.825268         0.506454
 H        -0.496918        -0.051903        -0.935081
 H         2.112278         0.762237        -2.001058
 H         1.940324         2.133181        -0.828912
 H         4.259551         1.803870        -0.573515
 H         4.559949        -0.651590        -1.830390
 H         5.248244        -0.382950        -0.270473
 H         3.842736        -2.106201         0.548061
 H         4.038861         0.489612         1.750650
