19
Iteration:  1308charge 0 multiplicity 1
 C        -0.103905        -0.045823        -0.122247
 C         1.453145         0.064439        -0.053734
 C         2.171988         1.226532        -0.816931
 C         3.634504         0.904197        -0.381886
 C         4.171981        -0.349831        -1.009389
 C         3.403395        -1.121928         0.139441
 O         2.067524        -1.200509        -0.226321
 C         3.372100         0.136702         1.017328
 O         1.991009         0.418979         1.326865
 H        -0.404966        -1.051905         0.401598
 H        -0.729516         0.665515         0.378179
 H        -0.377011        -0.138467        -1.210849
 H         2.056907         1.061811        -1.828679
 H         1.832099         2.216236        -0.548964
 H         4.269773         1.797682        -0.547745
 H         4.004309        -0.758482        -2.046369
 H         5.182769        -0.330339        -0.675787
 H         3.534112        -2.068719         0.505855
 H         4.181515         0.170496         1.781602
