19
Iteration:  4814
 C        -0.088736         0.084696         0.025743
 C         1.404660         0.027490        -0.070334
 C         2.151611         1.051204        -0.930876
 C         3.580890         0.922404        -0.369833
 C         4.346446        -0.296144        -0.876818
 C         3.420183        -1.108785         0.107216
 O         2.014881        -1.191902        -0.351417
 C         3.359794         0.198349         0.918732
 O         1.936212         0.337378         1.375497
 H        -0.401009        -0.700583         0.756453
 H        -0.396918         1.101173         0.382082
 H        -0.393040        -0.476998        -0.921773
 H         2.224169         0.947623        -1.993244
 H         1.598130         1.999357        -0.679333
 H         4.191290         1.843169        -0.243053
 H         4.339374        -0.465552        -2.062352
 H         5.513907        -0.506658        -0.670277
 H         3.639636        -1.986398         0.728306
 H         4.086216         0.193692         1.753462
