19
Iteration:   713charge 0 multiplicity 1
 C        -0.031559        -0.062303         0.093204
 C         1.467054         0.137437        -0.062549
 C         2.132483         1.146831        -0.998344
 C         3.617491         0.917758        -0.350591
 C         4.285710        -0.405990        -0.864887
 C         3.399903        -1.133606         0.155007
 O         2.059444        -1.207797        -0.317769
 C         3.276182         0.189958         0.920357
 O         1.932461         0.450442         1.284022
 H        -0.136183        -1.017386         0.610336
 H        -0.460146         0.674186         0.776334
 H        -0.701126        -0.135011        -0.817982
 H         2.101681         0.747967        -2.093099
 H         1.857371         2.212988        -1.000558
 H         4.234822         1.919265        -0.288390
 H         4.254668        -0.608707        -1.952021
 H         5.347616        -0.520089        -0.524833
 H         3.543956        -2.156140         0.515891
 H         4.039967         0.351409         1.689482
