19
Iteration:  4736
 C         0.038468        -0.053751        -0.145989
 C         1.442353         0.145963         0.095017
 C         2.171407         1.160699        -0.849742
 C         3.550135         0.978744        -0.402971
 C         4.238894        -0.385311        -0.978601
 C         3.373173        -1.163890         0.090895
 O         2.031344        -1.243794        -0.284475
 C         3.360727         0.199665         0.928466
 O         1.942470         0.389181         1.400636
 H        -0.555212        -0.838801         0.427822
 H        -0.468140         0.823831         0.351304
 H        -0.101032        -0.108044        -1.232648
 H         1.856609         0.807145        -1.793455
 H         1.795540         2.174752        -0.559621
 H         4.279422         1.841205        -0.347954
 H         4.014821        -0.643490        -2.051107
 H         5.403120        -0.359903        -0.677934
 H         3.690348        -2.095936         0.586960
 H         4.121942         0.314878         1.680694
