19
Iteration:  1837
 C        -0.082634        -0.007143        -0.025758
 C         1.497026         0.040704         0.018119
 C         2.144048         1.079172        -0.885809
 C         3.632698         0.955824        -0.474323
 C         4.221540        -0.367403        -0.905689
 C         3.371621        -1.095074         0.221208
 O         2.054890        -1.243637        -0.324132
 C         3.323807         0.256709         1.025670
 O         1.970293         0.410145         1.259613
 H        -0.438127        -0.942573         0.514412
 H        -0.414551         0.842087         0.487993
 H        -0.485246        -0.161472        -1.005900
 H         1.974200         0.852104        -2.034328
 H         1.859967         2.171106        -0.689858
 H         4.349735         1.672888        -0.528554
 H         4.110528        -0.718869        -1.944561
 H         5.361229        -0.275818        -0.752616
 H         3.623722        -2.082797         0.592961
 H         4.079545         0.454058         1.796224
