19
Iteration:  4365
 C        -0.005436         0.088647        -0.055371
 C         1.480174         0.106758         0.018291
 C         2.156351         1.104438        -0.856322
 C         3.553420         0.923913        -0.382821
 C         4.235915        -0.402106        -0.922390
 C         3.485420        -1.116398         0.132549
 O         2.055623        -1.255400        -0.286910
 C         3.290891         0.259108         0.982810
 O         1.947817         0.320800         1.296065
 H        -0.547765        -0.755987         0.353234
 H        -0.668788         0.882525         0.286772
 H        -0.249817        -0.000622        -1.084719
 H         1.858021         0.800882        -1.839772
 H         1.743745         2.149599        -0.699324
 H         4.202753         1.751583        -0.456583
 H         3.874282        -0.603738        -2.089972
 H         5.346334        -0.423181        -0.902916
 H         3.821479        -2.072105         0.491808
 H         3.929780         0.476338         1.883111
