19
Iteration:  1059charge 0 multiplicity 1
 C        -0.033014        -0.012921        -0.104544
 C         1.476886         0.047649        -0.007381
 C         2.164099         1.125417        -0.891447
 C         3.634579         1.002366        -0.369025
 C         4.184949        -0.325036        -0.965885
 C         3.357345        -1.095395         0.195714
 O         2.012164        -1.280254        -0.265299
 C         3.345263         0.201363         1.004207
 O         2.007175         0.388604         1.307687
 H        -0.502087        -0.887018         0.378723
 H        -0.534850         0.804728         0.315455
 H        -0.261965        -0.129532        -1.182758
 H         2.112954         0.952238        -2.009473
 H         1.784680         2.134091        -0.633313
 H         4.291938         1.783459        -0.504386
 H         3.755877        -0.649480        -1.920853
 H         5.238995        -0.609515        -0.898256
 H         3.894344        -1.999327         0.662500
 H         4.071676         0.373147         1.863137
