19
Iteration:  2298charge 0 multiplicity 1
 C        -0.033297        -0.128505        -0.090175
 C         1.442688         0.053403        -0.020134
 C         2.208380         1.185500        -0.834369
 C         3.661506         0.948429        -0.417707
 C         4.201213        -0.362123        -0.963243
 C         3.402509        -1.098196         0.101404
 O         1.985237        -1.215217        -0.247915
 C         3.307310         0.219590         0.994554
 O         1.997992         0.420447         1.336045
 H        -0.311348        -0.953100         0.619131
 H        -0.545380         0.834234         0.139346
 H        -0.286551        -0.317801        -1.172253
 H         2.100699         1.122398        -1.907868
 H         1.995748         2.190408        -0.413788
 H         4.326523         1.744804        -0.300332
 H         3.780480        -0.761707        -1.917049
 H         5.253484        -0.455592        -0.935046
 H         3.482581        -2.170550         0.421777
 H         3.911186         0.495513         1.898832
