19
Iteration:  2118
 C        -0.025684         0.056215        -0.079871
 C         1.472934         0.038660        -0.023017
 C         2.150561         1.104370        -0.897383
 C         3.603589         0.936102        -0.365761
 C         4.199339        -0.313861        -0.974065
 C         3.449507        -1.104022         0.145571
 O         2.058240        -1.262607        -0.241272
 C         3.307269         0.185795         1.010325
 O         1.961318         0.368238         1.302797
 H        -0.597008        -0.481267         0.743533
 H        -0.278047         1.086971         0.096987
 H        -0.581132        -0.370198        -0.874864
 H         2.117338         1.012670        -1.976110
 H         1.686658         2.010458        -0.689087
 H         4.199324         1.922683        -0.552851
 H         3.968956        -0.656095        -1.926285
 H         5.302721        -0.348565        -0.812736
 H         3.707713        -2.101129         0.394253
 H         3.994981         0.219244         1.910374
