19
Iteration:  3594charge 0 multiplicity 1
 C        -0.076995        -0.122112         0.090492
 C         1.417498         0.117489        -0.038973
 C         2.231289         1.158187        -0.965292
 C         3.715942         0.972243        -0.414494
 C         4.330220        -0.343877        -0.856142
 C         3.339538        -1.092005         0.131205
 O         1.965334        -1.233045        -0.343089
 C         3.291348         0.199874         0.975589
 O         1.957968         0.419547         1.288665
 H        -0.255549        -1.075197         0.704589
 H        -0.582964         0.745818         0.544772
 H        -0.821226        -0.238380        -0.757666
 H         2.120571         0.707902        -1.949097
 H         1.878877         2.138301        -0.970371
 H         4.304383         1.881842        -0.579145
 H         4.248690        -0.667467        -1.954606
 H         5.381358        -0.503868        -0.388666
 H         3.669670        -2.070845         0.458762
 H         4.017377         0.253346         1.775073
