19
Iteration:   966
 C        -0.092775        -0.142788         0.057646
 C         1.369958         0.119870        -0.066294
 C         2.207987         1.161037        -0.902348
 C         3.684658         0.953469        -0.400365
 C         4.309464        -0.436449        -0.859965
 C         3.358159        -1.119123         0.141135
 O         2.016316        -1.216677        -0.381122
 C         3.324213         0.199978         0.966260
 O         1.956871         0.494481         1.295542
 H        -0.298440        -0.781569         0.992066
 H        -0.563098         0.803049         0.279044
 H        -0.360451        -0.663845        -0.841889
 H         2.164632         0.833939        -1.964865
 H         1.819125         2.158722        -0.723581
 H         4.258634         1.980690        -0.396621
 H         4.201519        -0.793906        -1.906605
 H         5.383843        -0.490241        -0.525103
 H         3.611775        -2.053186         0.611718
 H         3.990611         0.561284         1.690990
