19
Iteration:   490
 C        -0.087459        -0.068100        -0.018044
 C         1.399750         0.101500        -0.001800
 C         2.179049         1.192855        -0.853959
 C         3.633435         0.911122        -0.400876
 C         4.238010        -0.366739        -1.041232
 C         3.467418        -1.183215         0.220093
 O         2.068225        -1.175095        -0.267495
 C         3.322723         0.156616         0.965885
 O         1.947136         0.454517         1.265626
 H        -0.283933        -1.086870         0.448417
 H        -0.661897         0.742129         0.376302
 H        -0.369165        -0.286487        -1.053574
 H         1.914373         1.132386        -1.884922
 H         1.880153         2.157986        -0.417007
 H         4.308623         1.694525        -0.472787
 H         3.815619        -0.704722        -2.009329
 H         5.356032        -0.430613        -1.045353
 H         3.817444        -2.163972         0.769883
 H         3.865579         0.379070         1.961241
