19
Iteration:  4091charge 0 multiplicity 1
 C        -0.068326        -0.014237        -0.102976
 C         1.444778         0.022639        -0.007994
 C         2.148242         1.215989        -0.855046
 C         3.650924         0.954380        -0.405115
 C         4.204096        -0.341784        -0.953228
 C         3.472838        -1.134186         0.186277
 O         2.030104        -1.212219        -0.279855
 C         3.335128         0.124381         0.993374
 O         1.978727         0.366023         1.317404
 H        -0.307978        -0.681687         0.759619
 H        -0.339248         1.092392         0.046638
 H        -0.675798        -0.413547        -1.010656
 H         1.988320         1.277324        -2.007376
 H         1.588775         2.196457        -0.413660
 H         4.218047         1.954265        -0.406555
 H         3.726795        -0.730213        -1.874120
 H         5.255702        -0.430108        -0.981225
 H         3.841417        -2.165376         0.313957
 H         4.036308         0.337131         1.796568
