19
Iteration:   367charge 0 multiplicity 1
 C        -0.070757        -0.126543        -0.098148
 C         1.393137         0.172022         0.055370
 C         2.218614         1.127738        -0.770949
 C         3.624890         0.887602        -0.420885
 C         4.178541        -0.403989        -1.048965
 C         3.458129        -1.093527         0.100980
 O         2.037874        -1.213531        -0.286287
 C         3.313973         0.191161         1.039478
 O         2.008598         0.498537         1.346119
 H        -0.372224        -1.118393         0.388297
 H        -0.846652         0.643292         0.019939
 H        -0.203355        -0.354099        -1.206963
 H         2.046977         0.878935        -1.855206
 H         1.900468         2.163974        -0.632769
 H         4.101750         1.888803        -0.360030
 H         3.922549        -0.577975        -2.102868
 H         5.310896        -0.373292        -0.840535
 H         3.829553        -2.134718         0.531776
 H         3.892754         0.204023         1.908922
