19
Iteration:  1679
 C        -0.056672        -0.062807         0.133414
 C         1.439699         0.098798        -0.096950
 C         2.234975         1.101972        -0.964917
 C         3.645994         0.922367        -0.400322
 C         4.306542        -0.338642        -0.907173
 C         3.409261        -1.087000         0.198677
 O         1.952756        -1.200453        -0.340596
 C         3.314433         0.231099         0.977808
 O         1.934853         0.369429         1.232285
 H        -0.207372        -1.026258         0.674981
 H        -0.549238         0.737996         0.679766
 H        -0.709013        -0.013558        -0.698632
 H         2.303084         0.993194        -2.074972
 H         1.933878         2.135688        -0.585888
 H         4.197455         1.921314        -0.428309
 H         4.066076        -0.957623        -1.841426
 H         5.369302        -0.558502        -0.647800
 H         3.581069        -2.023921         0.700539
 H         4.001631         0.527487         1.744469
