19
Iteration:   852charge 0 multiplicity 1
 C        -0.139849        -0.146292         0.056639
 C         1.401445         0.078233         0.019986
 C         2.146266         1.144402        -0.932272
 C         3.743736         0.966120        -0.425070
 C         4.343557        -0.458297        -0.849529
 C         3.374041        -1.080881         0.175525
 O         1.992969        -1.129217        -0.414017
 C         3.312838         0.217048         0.970905
 O         1.968274         0.446270         1.287694
 H        -0.396840        -0.876449         0.799708
 H        -0.581952         0.905373         0.438366
 H        -0.572486        -0.600664        -0.890794
 H         2.062128         0.717082        -1.945539
 H         1.833514         2.179094        -0.994690
 H         4.422741         1.729674        -0.588854
 H         4.310501        -0.962475        -1.829298
 H         5.391413        -0.306283        -0.610763
 H         3.694386        -2.039784         0.680668
 H         3.991610         0.372979         1.848411
