19
Iteration:  3570
 C        -0.009901        -0.021985         0.063961
 C         1.455938         0.098963        -0.023511
 C         2.148221         1.126510        -0.906323
 C         3.582849         0.886293        -0.361417
 C         4.258937        -0.385572        -0.929531
 C         3.411792        -1.110429         0.190493
 O         2.118728        -1.224182        -0.372663
 C         3.249954         0.230653         0.991060
 O         1.953054         0.420454         1.215372
 H        -0.267776        -0.888390         0.780061
 H        -0.465685         0.931383         0.396526
 H        -0.716730        -0.176932        -0.763621
 H         2.072152         0.956783        -1.960939
 H         1.853620         2.136867        -0.724502
 H         4.203195         1.833084        -0.393967
 H         3.944314        -0.801477        -1.875213
 H         5.376318        -0.417742        -0.695837
 H         3.602197        -2.109807         0.579350
 H         3.802641         0.331533         1.955059
