19
Iteration:  2413charge 0 multiplicity 1
 C         0.005687        -0.148435        -0.124052
 C         1.478447         0.105322         0.114913
 C         2.168935         1.128485        -0.892373
 C         3.673547         0.989944        -0.360177
 C         4.132763        -0.338129        -0.974343
 C         3.340891        -1.151579         0.130575
 O         1.953909        -1.211717        -0.270703
 C         3.391105         0.219674         1.004534
 O         1.991250         0.449423         1.324350
 H        -0.210308        -1.045617         0.363716
 H        -0.805490         0.564187         0.175963
 H        -0.223689        -0.249185        -1.196840
 H         2.191610         0.851121        -2.018075
 H         1.913303         2.230512        -0.704928
 H         4.281128         1.953425        -0.455054
 H         3.872310        -0.702391        -1.987508
 H         5.265850        -0.561055        -0.866170
 H         3.854889        -2.061874         0.432643
 H         4.159396         0.386692         1.702179
