19
Iteration:   468charge 0 multiplicity 1
 C        -0.026611        -0.004868         0.017253
 C         1.423805         0.012588        -0.045590
 C         2.185853         1.129147        -0.898993
 C         3.623062         0.992349        -0.357855
 C         4.248780        -0.364084        -0.930475
 C         3.362876        -1.109040         0.037304
 O         2.017382        -1.263473        -0.282188
 C         3.344203         0.236856         0.977676
 O         1.971744         0.397490         1.312107
 H        -0.347571        -0.739292         0.849391
 H        -0.329984         0.982262         0.286218
 H        -0.519711        -0.363250        -0.895637
 H         2.132120         0.968602        -1.965230
 H         1.698462         2.079149        -0.650483
 H         4.196097         1.877430        -0.366711
 H         4.097417        -0.581971        -2.003803
 H         5.306538        -0.605043        -0.612528
 H         3.758047        -2.114569         0.462333
 H         3.960112         0.463753         1.907742
