19
Iteration:  4783charge 0 multiplicity 1
 C         0.013869        -0.006049         0.033612
 C         1.456982         0.019616         0.029077
 C         2.192877         1.192669        -0.937041
 C         3.670035         0.916201        -0.378676
 C         4.215562        -0.344670        -0.966426
 C         3.419077        -1.105477         0.087467
 O         2.051457        -1.249614        -0.300039
 C         3.292369         0.209959         0.995422
 O         1.874796         0.377491         1.293657
 H        -0.497646        -0.734963         0.658085
 H        -0.560705         0.870930         0.380406
 H        -0.194684        -0.279817        -1.093853
 H         2.333262         1.106954        -2.029836
 H         1.726107         2.128337        -0.560521
 H         4.232637         1.862499        -0.258242
 H         3.905030        -0.537088        -2.072735
 H         5.238768        -0.484589        -0.745108
 H         3.733593        -2.037274         0.594108
 H         3.855812         0.297034         1.951205
