19
Iteration:  3499charge 0 multiplicity 1
 C        -0.048405        -0.062579        -0.072474
 C         1.451845         0.063843        -0.050000
 C         2.237183         1.147060        -0.921103
 C         3.612567         0.959148        -0.360937
 C         4.160316        -0.366813        -0.951516
 C         3.399704        -1.090543         0.106908
 O         2.015249        -1.272241        -0.236575
 C         3.314417         0.235809         1.031819
 O         2.018079         0.395896         1.340469
 H        -0.450710        -0.689527         0.680249
 H        -0.381066         0.957897        -0.066361
 H        -0.378638        -0.394320        -1.062936
 H         2.207751         0.905643        -2.031464
 H         1.812234         2.216797        -0.783942
 H         4.248385         1.807338        -0.240880
 H         3.759492        -0.457410        -1.951481
 H         5.176815        -0.509157        -0.899154
 H         3.688571        -2.076074         0.556799
 H         3.976280         0.454065         1.834309
