19
Iteration:   742charge 0 multiplicity 1
 C        -0.110054        -0.099791        -0.006091
 C         1.467548         0.070879        -0.007796
 C         2.235273         1.130909        -0.816837
 C         3.669272         0.947001        -0.435026
 C         4.256788        -0.403143        -0.947343
 C         3.408353        -1.105807         0.226802
 O         1.974288        -1.243756        -0.325850
 C         3.342980         0.293512         0.968710
 O         1.952115         0.420500         1.248690
 H        -0.261985        -1.019071         0.521305
 H        -0.750090         0.815287         0.384883
 H        -0.608252        -0.150654        -0.954459
 H         2.174690         0.986116        -1.825566
 H         2.075547         2.185473        -0.591001
 H         4.115627         1.813004        -0.702465
 H         4.049484        -0.645608        -2.024656
 H         5.316867        -0.394486        -0.789429
 H         3.556755        -2.108877         0.726383
 H         3.989276         0.515336         1.784181
