19
Iteration:  3700
 C        -0.107471        -0.151249        -0.030661
 C         1.495897         0.162140         0.039679
 C         2.171788         1.084866        -0.889727
 C         3.672152         0.969275        -0.350989
 C         4.302519        -0.389313        -0.903964
 C         3.349842        -1.140129         0.097231
 O         1.957116        -1.173622        -0.327484
 C         3.316689         0.238609         0.953696
 O         2.008973         0.426471         1.300875
 H        -0.488371        -0.746295         0.824960
 H        -0.690321         0.724914         0.066140
 H        -0.338511        -0.627308        -0.953150
 H         2.109625         0.671991        -1.927987
 H         1.784478         2.214148        -0.803117
 H         4.226091         1.940250        -0.425670
 H         4.264702        -0.526495        -1.919565
 H         5.341621        -0.437415        -0.627594
 H         3.595060        -2.103020         0.540218
 H         4.042746         0.385053         1.752736
