19
Iteration:   539charge 0 multiplicity 1
 C        -0.152547         0.046878        -0.038582
 C         1.403211         0.094990         0.016791
 C         2.184442         1.076185        -0.935408
 C         3.557085         0.912680        -0.374143
 C         4.316473        -0.283081        -0.947967
 C         3.455218        -1.212484         0.074937
 O         2.055514        -1.300705        -0.214294
 C         3.358671         0.230304         0.991934
 O         1.976511         0.428645         1.324090
 H        -0.611654        -0.860008         0.392612
 H        -0.583119         0.966908         0.509054
 H        -0.494686         0.072490        -1.107138
 H         1.888994         0.781994        -1.989376
 H         1.870302         2.118155        -0.750335
 H         4.187884         1.881614        -0.353832
 H         4.118052        -0.526986        -1.993900
 H         5.385586        -0.321841        -0.750124
 H         3.936427        -2.122880         0.160214
 H         4.042446         0.401485         1.766334
