19
Iteration:   167charge 0 multiplicity 1
 C        -0.093454        -0.000512         0.183812
 C         1.409450         0.111818        -0.015501
 C         2.158787         0.993394        -0.936555
 C         3.614172         0.886423        -0.412756
 C         4.343971        -0.399209        -0.881071
 C         3.383647        -1.126692         0.148879
 O         2.148598        -1.215684        -0.409379
 C         3.232935         0.300696         0.929904
 O         1.919857         0.466409         1.243509
 H        -0.205693        -0.876805         0.823363
 H        -0.590179         0.853693         0.702065
 H        -0.572367        -0.231331        -0.755263
 H         2.129186         0.602622        -1.942711
 H         1.815070         2.034311        -0.836022
 H         4.266080         1.778219        -0.339119
 H         4.164041        -0.587202        -1.970549
 H         5.366980        -0.439396        -0.547345
 H         3.690197        -2.056160         0.625597
 H         3.969054         0.550267         1.768643
