19
Iteration:  1499charge 0 multiplicity 1
 C        -0.043502         0.078999        -0.006502
 C         1.460090        -0.011488        -0.023911
 C         2.160677         1.017275        -0.892458
 C         3.671211         1.000902        -0.322006
 C         4.241997        -0.363123        -0.942615
 C         3.415383        -0.992847         0.094448
 O         2.030932        -1.260006        -0.268593
 C         3.289978         0.202162         0.933029
 O         1.933147         0.337794         1.287483
 H        -0.525831        -0.679966         0.554395
 H        -0.307267         1.030873         0.593517
 H        -0.490439         0.133720        -1.072349
 H         2.218133         0.784386        -1.952116
 H         1.803083         2.001098        -0.753685
 H         4.313563         1.900684        -0.348935
 H         3.985345        -0.734977        -1.945946
 H         5.330676        -0.337111        -0.722368
 H         3.706495        -2.037214         0.491443
 H         3.911803         0.334206         1.857835
