19
Iteration:  3070
 C        -0.085421         0.073921        -0.008181
 C         1.461563         0.070074        -0.042499
 C         2.194790         1.077457        -0.928439
 C         3.568049         0.958199        -0.347911
 C         4.286197        -0.330485        -0.918115
 C         3.421618        -1.108451         0.101168
 O         2.049465        -1.239989        -0.303397
 C         3.301023         0.192188         1.048256
 O         1.950818         0.311445         1.304390
 H        -0.480020        -0.663403         0.649860
 H        -0.501739         1.105638         0.314361
 H        -0.576340        -0.060239        -0.978837
 H         2.278957         0.947574        -2.033590
 H         1.961392         2.156354        -0.799700
 H         4.280446         1.828541        -0.384673
 H         3.897667        -0.538729        -2.046286
 H         5.373636        -0.394075        -0.807992
 H         3.794246        -2.165232         0.376240
 H         3.914784         0.267572         1.930397
