19
Iteration:  2575
 C        -0.033817         0.013258        -0.152935
 C         1.457313         0.048755         0.046191
 C         2.164281         1.019078        -0.869742
 C         3.594099         1.005412        -0.418045
 C         4.157688        -0.334764        -0.968340
 C         3.370109        -1.117183         0.110384
 O         2.012772        -1.245403        -0.212066
 C         3.434930         0.212133         1.042997
 O         2.000256         0.384328         1.346232
 H        -0.481342        -0.551101         0.660871
 H        -0.476297         1.088969        -0.174913
 H        -0.081383        -0.359904        -1.215721
 H         1.955824         0.803000        -1.984313
 H         1.619126         2.013170        -0.797627
 H         4.047317         2.095180        -0.439837
 H         3.917521        -0.604946        -1.969185
 H         5.277638        -0.356694        -0.840841
 H         3.770180        -2.047291         0.462828
 H         4.230455         0.359998         1.760260
