19
Iteration:  3684
 C        -0.086830        -0.065071        -0.078335
 C         1.417844         0.024835        -0.022372
 C         2.210746         1.105185        -0.900646
 C         3.611730         0.952808        -0.379183
 C         4.195601        -0.315365        -0.947778
 C         3.385832        -1.057228         0.116889
 O         2.021825        -1.238213        -0.230194
 C         3.393107         0.157437         0.992195
 O         1.986236         0.468957         1.341427
 H        -0.181043        -0.736898         0.758198
 H        -0.585795         0.971087        -0.119027
 H        -0.162163        -0.472359        -1.164642
 H         2.015605         1.134201        -1.984488
 H         1.785964         2.049296        -0.759735
 H         4.233881         1.829549        -0.441473
 H         4.008983        -0.709775        -2.071067
 H         5.230696        -0.600074        -0.596311
 H         3.705911        -2.096010         0.412834
 H         4.003312         0.139265         1.907295
