19
Iteration:  1660
 C        -0.097497         0.005920         0.099736
 C         1.423589         0.031278        -0.035648
 C         2.106406         1.102234        -0.946325
 C         3.632512         0.973915        -0.439733
 C         4.325746        -0.427625        -0.815077
 C         3.361747        -1.133633         0.107677
 O         2.074322        -1.225078        -0.380680
 C         3.354617         0.214572         0.969365
 O         1.967211         0.438298         1.279268
 H        -0.397640        -0.830932         0.674081
 H        -0.392904         0.961958         0.678729
 H        -0.698462         0.190145        -0.837797
 H         2.001695         0.666885        -2.060907
 H         1.669751         2.145049        -0.763990
 H         4.297289         1.768191        -0.463903
 H         4.325654        -0.553031        -1.904680
 H         5.379815        -0.310173        -0.391100
 H         3.754849        -2.058277         0.512875
 H         3.833166         0.234872         1.976356
