19
Iteration:  1684charge 0 multiplicity 1
 C        -0.038842        -0.080651         0.107839
 C         1.446897         0.116938        -0.059657
 C         2.256520         1.125721        -0.947980
 C         3.618395         0.922983        -0.408222
 C         4.309640        -0.387220        -0.912586
 C         3.360315        -1.098423         0.177620
 O         1.978722        -1.216014        -0.321217
 C         3.340855         0.244407         0.925373
 O         1.895949         0.385170         1.256347
 H        -0.093152        -0.979937         0.700000
 H        -0.540996         0.741440         0.701276
 H        -0.714672        -0.030646        -0.816152
 H         2.299140         0.954498        -2.080699
 H         1.959860         2.119818        -0.636621
 H         4.288955         1.735018        -0.297832
 H         3.965700        -0.698319        -1.881941
 H         5.425649        -0.377544        -0.749478
 H         3.715411        -2.020210         0.710857
 H         3.891724         0.551343         1.876688
