19
Iteration:  3223
 C         0.003126        -0.052283        -0.018615
 C         1.474929         0.036954        -0.085927
 C         2.158837         1.187020        -0.851409
 C         3.688158         0.920724        -0.335458
 C         4.211733        -0.397764        -0.972960
 C         3.424128        -1.098927         0.126955
 O         2.008480        -1.173260        -0.278314
 C         3.316891         0.155141         0.988685
 O         1.902258         0.448962         1.276730
 H        -0.285816        -1.003130         0.318074
 H        -0.429227         0.579306         0.740379
 H        -0.376772        -0.114980        -1.008172
 H         2.247118         1.034028        -1.979800
 H         1.799518         2.179606        -0.346814
 H         4.324725         1.829744        -0.134593
 H         3.715653        -0.749537        -1.923251
 H         5.246238        -0.434803        -1.058893
 H         3.809740        -2.098392         0.358883
 H         3.764327         0.189265         1.926508
