19
Iteration:  1085
 C        -0.040253        -0.107177         0.032702
 C         1.440712         0.098858        -0.084500
 C         2.170164         1.171779        -0.875212
 C         3.654837         0.937273        -0.351634
 C         4.295900        -0.414386        -0.955708
 C         3.414094        -1.156828         0.157571
 O         2.013358        -1.174730        -0.334182
 C         3.279402         0.205599         1.000404
 O         1.918631         0.464948         1.288993
 H        -0.348846        -1.140725         0.534108
 H        -0.513442         0.734647         0.661487
 H        -0.538705        -0.122054        -0.939278
 H         2.189085         0.963092        -1.989970
 H         1.867560         2.190674        -0.667919
 H         4.423588         1.741539        -0.552393
 H         4.066453        -0.787061        -1.959052
 H         5.394693        -0.590307        -0.762522
 H         3.780975        -2.083860         0.600630
 H         3.906908         0.462405         1.797229
