19
Iteration:  3489
 C        -0.019781        -0.038335        -0.033114
 C         1.477589         0.057267        -0.084308
 C         2.178822         1.127310        -0.847111
 C         3.686851         0.955983        -0.363856
 C         4.187669        -0.364381        -0.965931
 C         3.395613        -1.104198         0.228316
 O         2.016833        -1.189384        -0.272700
 C         3.382433         0.227483         0.954121
 O         1.896259         0.355927         1.263836
 H        -0.299416        -0.639683         0.774080
 H        -0.603745         0.841074         0.243412
 H        -0.463564        -0.453205        -0.930088
 H         2.152239         0.954136        -1.969198
 H         1.721561         2.202700        -0.690560
 H         4.297184         1.829317        -0.536586
 H         3.993397        -0.606512        -1.989967
 H         5.185595        -0.549913        -0.884611
 H         3.711001        -2.089393         0.716622
 H         3.948100         0.341403         1.835706
