19
Iteration:   560charge 0 multiplicity 1
 C        -0.084554         0.137532         0.085657
 C         1.445947        -0.017649        -0.024066
 C         2.152196         1.010733        -0.935159
 C         3.624880         1.008454        -0.381937
 C         4.303432        -0.321211        -0.926477
 C         3.412162        -1.101439         0.115747
 O         2.072739        -1.298671        -0.317853
 C         3.296174         0.205825         1.012725
 O         1.924352         0.354485         1.245504
 H        -0.490840        -0.611725         0.725972
 H        -0.217875         1.229531         0.505099
 H        -0.689348         0.070374        -0.829532
 H         2.238354         0.681248        -2.029469
 H         1.607830         1.972373        -0.874683
 H         4.237170         1.988894        -0.368179
 H         4.181553        -0.529789        -2.009912
 H         5.357666        -0.372138        -0.673894
 H         3.863769        -1.962285         0.567574
 H         3.876593         0.392849         1.867959
