19
Iteration:   347
 C        -0.052064        -0.001446        -0.106731
 C         1.437016         0.047998         0.080305
 C         2.087095         1.114495        -0.888711
 C         3.650137         0.995220        -0.369716
 C         4.245448        -0.333814        -0.931014
 C         3.384092        -1.124973         0.120847
 O         2.031576        -1.287059        -0.273091
 C         3.401771         0.225056         0.924207
 O         1.997223         0.410197         1.338275
 H        -0.562222        -0.955879         0.317856
 H        -0.490167         0.815657         0.336081
 H        -0.438229        -0.052904        -1.157643
 H         2.003764         0.889909        -1.962380
 H         1.656913         2.079615        -0.641566
 H         4.189190         1.905463        -0.424679
 H         3.907739        -0.624836        -1.924581
 H         5.336656        -0.510770        -0.744393
 H         3.673140        -2.157263         0.593881
 H         4.145942         0.398170         1.703060
