19
Iteration:   116charge 0 multiplicity 1
 C        -0.094368        -0.038443        -0.121200
 C         1.401457         0.121543         0.165655
 C         2.111190         1.040732        -0.827787
 C         3.631748         0.980248        -0.477201
 C         4.232836        -0.398467        -0.964604
 C         3.428639        -1.118602         0.087384
 O         2.067503        -1.364588        -0.203402
 C         3.414229         0.236478         0.966448
 O         1.935704         0.564439         1.262335
 H        -0.509732        -0.902930         0.324364
 H        -0.679950         0.922631         0.327946
 H        -0.218364        -0.103554        -1.185872
 H         1.993253         0.775420        -1.916380
 H         1.902222         2.096464        -0.526269
 H         4.288838         1.918429        -0.526073
 H         3.986912        -0.691139        -2.013892
 H         5.375585        -0.522087        -0.768104
 H         4.057882        -2.052360         0.601094
 H         3.963158         0.308862         1.883892
