19
Iteration:  2433
 C        -0.058328        -0.046489        -0.137340
 C         1.433587         0.058874        -0.046144
 C         2.151650         1.128519        -0.857325
 C         3.604826         0.954797        -0.415086
 C         4.172734        -0.409723        -1.020376
 C         3.483546        -1.096174         0.148946
 O         2.069477        -1.196506        -0.175073
 C         3.309059         0.227283         0.984273
 O         1.999044         0.370559         1.392502
 H        -0.513387        -0.905436         0.305949
 H        -0.669979         0.710265         0.358457
 H        -0.399908         0.011227        -1.159024
 H         2.109017         1.025337        -2.007199
 H         1.880680         2.257801        -0.754622
 H         4.273243         1.881263        -0.426550
 H         3.821161        -0.562844        -2.016787
 H         5.304819        -0.464318        -1.049971
 H         3.738331        -2.012798         0.631090
 H         3.920567         0.295020         1.850051
