19
Iteration:  1259
 C        -0.126276         0.075945         0.062625
 C         1.462503         0.072091        -0.028973
 C         2.178428         1.062957        -0.987534
 C         3.649412         0.980760        -0.347922
 C         4.274267        -0.277774        -0.861749
 C         3.473067        -1.125204         0.066464
 O         2.068505        -1.276001        -0.290923
 C         3.283055         0.154885         0.968852
 O         1.948023         0.336566         1.260971
 H        -0.712004        -0.536697         0.689999
 H        -0.187881         1.151773         0.599765
 H        -0.737503         0.276713        -0.816528
 H         1.902773         0.692567        -2.124955
 H         1.708607         2.109321        -0.756029
 H         4.042818         1.993237        -0.351616
 H         4.210246        -0.679535        -1.912058
 H         5.381498        -0.407305        -0.511851
 H         3.749030        -2.284754         0.344870
 H         3.771843         0.213377         1.936835
