19
Iteration:  3852
 C        -0.047085        -0.009299         0.076404
 C         1.454385         0.070049        -0.023816
 C         2.126086         1.054731        -0.931388
 C         3.658204         0.914185        -0.341143
 C         4.267020        -0.334395        -0.881670
 C         3.362341        -1.069136         0.068326
 O         2.037875        -1.204257        -0.401890
 C         3.367916         0.171813         1.015937
 O         1.913809         0.385369         1.299806
 H        -0.375837        -0.787064         0.841786
 H        -0.538369         0.930021         0.293987
 H        -0.605602        -0.275120        -0.800630
 H         2.130515         0.860170        -2.036189
 H         1.950876         2.171588        -0.820413
 H         4.312080         1.863098        -0.403853
 H         4.153779        -0.680639        -1.970979
 H         5.374025        -0.105818        -0.605172
 H         3.712310        -1.912770         0.647523
 H         4.111518         0.288089         1.775992
