19
Iteration:  2230
 C        -0.095449         0.079487         0.071227
 C         1.484691         0.006002         0.032572
 C         2.176238         1.046385        -0.959851
 C         3.591828         1.012465        -0.332252
 C         4.342587        -0.272460        -0.872937
 C         3.388699        -1.129599         0.076006
 O         1.985145        -1.292920        -0.275486
 C         3.278284         0.155173         0.920971
 O         1.983396         0.404005         1.233899
 H        -0.528897        -0.810228         0.548729
 H        -0.284353         1.097352         0.577789
 H        -0.510334         0.122944        -1.017006
 H         2.286067         0.561816        -1.927469
 H         1.711720         2.010222        -1.079925
 H         4.028247         2.005950        -0.160759
 H         4.267486        -0.444949        -1.973206
 H         5.302616        -0.377941        -0.424703
 H         3.996082        -2.080801         0.261505
 H         3.951120         0.193017         1.715852
