19
Iteration:  2212
 C        -0.058590         0.106045         0.069889
 C         1.377388         0.041621        -0.111467
 C         2.179912         0.957124        -1.023794
 C         3.623228         0.955166        -0.331223
 C         4.331767        -0.260468        -0.906703
 C         3.389260        -1.112915         0.101061
 O         2.018891        -1.220820        -0.339436
 C         3.363415         0.200471         1.027375
 O         1.932948         0.329282         1.355025
 H        -0.296734        -0.731234         0.733252
 H        -0.178042         1.063943         0.513478
 H        -0.625085        -0.119621        -0.830467
 H         2.052085         0.742102        -2.085377
 H         1.686560         1.999978        -0.919363
 H         4.100837         1.886083        -0.377300
 H         4.155947        -0.529733        -1.994561
 H         5.417255        -0.261604        -0.631343
 H         3.677752        -2.026843         0.630996
 H         4.023595         0.419998         1.891811
