19
Iteration:   318
 C        -0.027839         0.151272         0.081580
 C         1.441255         0.044031        -0.024196
 C         2.151150         1.045984        -0.979829
 C         3.611769         0.966695        -0.410698
 C         4.279267        -0.298909        -0.921262
 C         3.435912        -1.059727         0.120516
 O         2.113606        -1.337908        -0.276465
 C         3.294787         0.182188         0.973000
 O         1.867817         0.316095         1.265848
 H        -0.314925        -0.715702         0.705631
 H        -0.361307         1.040478         0.693287
 H        -0.709997         0.186838        -0.772596
 H         2.071301         0.834728        -2.035913
 H         1.640741         2.032033        -0.863348
 H         4.170511         1.946866        -0.484812
 H         4.232421        -0.648207        -1.975800
 H         5.297109        -0.316897        -0.584854
 H         3.794475        -1.894431         0.593626
 H         3.963515         0.323520         1.905363
