19
Iteration:   189
 C        -0.120560         0.024423         0.045571
 C         1.462282        -0.014125        -0.008790
 C         2.110237         1.033783        -0.991826
 C         3.623401         1.014134        -0.482946
 C         4.371776        -0.307545        -0.869251
 C         3.456811        -1.095439         0.128900
 O         1.937161        -1.274986        -0.258563
 C         3.341915         0.195720         0.979422
 O         1.991745         0.438602         1.293986
 H        -0.539970        -0.612929         0.795837
 H        -0.500958         1.057600         0.342944
 H        -0.505554        -0.264939        -0.910389
 H         1.983878         0.730092        -2.027720
 H         1.655031         1.991994        -0.706862
 H         4.194174         1.985953        -0.602338
 H         4.460354        -0.667953        -1.927048
 H         5.310421        -0.353041        -0.317996
 H         3.723571        -2.091838         0.451388
 H         4.126766         0.222737         1.805140
