19
Iteration:  3415charge 0 multiplicity 1
 C        -0.092505         0.017751        -0.048877
 C         1.461452         0.029595        -0.021368
 C         2.254951         1.050854        -0.941154
 C         3.652677         0.997610        -0.365634
 C         4.203456        -0.309293        -0.978806
 C         3.404207        -1.125764         0.086150
 O         2.022073        -1.279306        -0.226260
 C         3.369076         0.231844         1.007865
 O         1.890435         0.385619         1.328406
 H        -0.603848        -0.701449         0.540088
 H        -0.323511         0.915396         0.614341
 H        -0.570382         0.018901        -1.051191
 H         2.329227         0.706973        -1.939536
 H         1.772143         1.986805        -0.820921
 H         4.380658         1.783340        -0.179044
 H         4.063447        -0.418429        -2.059315
 H         5.379241        -0.173285        -0.914412
 H         3.682994        -2.100833         0.542868
 H         3.969252         0.393563         1.860541
