19
Iteration:  1412charge 0 multiplicity 1
 C        -0.038553         0.031685         0.037155
 C         1.413117         0.058913        -0.043523
 C         2.134762         1.099779        -0.951086
 C         3.632414         0.982723        -0.315593
 C         4.235591        -0.342728        -0.912111
 C         3.394296        -1.149919         0.112449
 O         2.072650        -1.239657        -0.326354
 C         3.304851         0.203232         1.004573
 O         1.974728         0.337139         1.265001
 H        -0.318337        -0.436393         0.920686
 H        -0.134963         1.152823         0.161930
 H        -0.601148        -0.312680        -0.820586
 H         2.185728         1.002740        -2.066112
 H         1.633926         2.052706        -0.749252
 H         4.181566         1.923077        -0.196973
 H         4.172019        -0.497590        -1.989053
 H         5.352452        -0.304129        -0.766472
 H         3.530051        -2.202366         0.572549
 H         4.044264         0.279178         1.813962
