19
Iteration:  3706
 C        -0.125901        -0.146337         0.034733
 C         1.492296         0.135161         0.040870
 C         2.211638         1.133171        -0.926792
 C         3.633184         0.989687        -0.348008
 C         4.358877        -0.399299        -0.938682
 C         3.373397        -1.177645         0.136215
 O         1.956918        -1.160487        -0.357970
 C         3.315710         0.247794         0.956663
 O         1.968462         0.409147         1.321319
 H        -0.320007        -0.773454         0.902734
 H        -0.700315         0.858492        -0.014797
 H        -0.250962        -0.551531        -1.023378
 H         2.000248         0.854841        -1.955859
 H         1.683497         2.021827        -0.985685
 H         4.186535         1.899277        -0.472617
 H         4.365561        -0.609451        -2.128622
 H         5.421223        -0.500326        -0.558590
 H         3.442163        -2.190726         0.619879
 H         3.976795         0.454067         1.829846
