19
Iteration:  1238
 C        -0.051631         0.060897         0.075589
 C         1.476135         0.056713        -0.058021
 C         2.165963         1.071235        -0.881747
 C         3.583177         0.912353        -0.355483
 C         4.328739        -0.354492        -0.917914
 C         3.409633        -1.109378         0.126065
 O         2.010246        -1.279019        -0.385366
 C         3.308811         0.199440         0.959433
 O         1.930223         0.400550         1.267627
 H        -0.284413        -0.645442         0.830862
 H        -0.402986         1.091744         0.540980
 H        -0.629952        -0.187285        -0.830117
 H         2.375413         0.914672        -1.998491
 H         1.647253         2.075515        -0.680427
 H         4.153624         1.862950        -0.325326
 H         4.294793        -0.256336        -2.018724
 H         5.376825        -0.373712        -0.515050
 H         3.709799        -2.056334         0.671882
 H         3.782133         0.408924         1.908771
