19
Iteration:   334charge 0 multiplicity 1
 C        -0.040186         0.035559        -0.021852
 C         1.472924         0.002330        -0.093971
 C         2.181782         1.088441        -0.911299
 C         3.546324         0.977411        -0.462131
 C         4.221603        -0.338851        -0.918998
 C         3.459055        -1.123275         0.112148
 O         1.975208        -1.230336        -0.212742
 C         3.314462         0.290440         1.031761
 O         2.000202         0.288409         1.327243
 H        -0.466587        -0.804856         0.548786
 H        -0.221728         0.993867         0.558603
 H        -0.326533         0.178675        -1.082515
 H         2.025321         0.870732        -2.001560
 H         1.777235         2.088184        -0.706924
 H         4.133361         1.947639        -0.471504
 H         4.241972        -0.542000        -2.004933
 H         5.339174        -0.325333        -0.641237
 H         3.850122        -2.204281         0.356044
 H         3.888454         0.503945         1.872549
