19
Iteration:  4538charge 0 multiplicity 1
 C        -0.068226        -0.023533         0.102150
 C         1.443496         0.005911        -0.105373
 C         2.190284         1.082393        -0.863884
 C         3.614923         0.979989        -0.367318
 C         4.309436        -0.414725        -0.851711
 C         3.344164        -1.071576         0.066564
 O         2.015315        -1.213885        -0.396054
 C         3.345253         0.268385         0.987262
 O         1.953494         0.387272         1.267765
 H        -0.400517        -0.910927         0.710098
 H        -0.457978         0.956147         0.517418
 H        -0.610431        -0.121439        -0.904200
 H         2.097254         0.894138        -1.984565
 H         1.884332         2.132447        -0.647070
 H         4.124073         1.917993        -0.319546
 H         4.290223        -0.718228        -1.858003
 H         5.318070        -0.539342        -0.463944
 H         3.723746        -1.934334         0.652030
 H         4.098361         0.453364         1.814067
