19
Iteration:   911charge 0 multiplicity 1
 C        -0.075175         0.125219        -0.151204
 C         1.397559        -0.024009        -0.017137
 C         2.185479         1.020077        -0.936798
 C         3.623319         0.962298        -0.362791
 C         4.182622        -0.334865        -0.994419
 C         3.429360        -1.074214         0.155608
 O         2.092398        -1.327491        -0.146639
 C         3.364014         0.268200         1.036008
 O         1.959672         0.360717         1.313134
 H        -0.568030        -0.760910         0.434383
 H        -0.366100         1.021080         0.293932
 H        -0.356719         0.169157        -1.200497
 H         2.057137         0.949693        -2.087124
 H         1.736077         1.973026        -0.646393
 H         4.179473         1.992895        -0.577618
 H         3.740360        -0.753624        -1.900690
 H         5.322108        -0.289524        -1.034988
 H         3.861377        -1.963674         0.573563
 H         3.999562         0.635927         1.823571
