19
Iteration:  1155
 C        -0.056011         0.105869        -0.080512
 C         1.450203         0.062518        -0.006434
 C         2.215919         1.155688        -0.893296
 C         3.584653         0.933791        -0.400023
 C         4.203409        -0.311635        -0.959932
 C         3.441511        -1.097665         0.121736
 O         2.058622        -1.312013        -0.179805
 C         3.344921         0.206667         0.985281
 O         1.935306         0.278075         1.275721
 H        -0.410162        -0.506024         0.714496
 H        -0.491346         1.104788         0.170661
 H        -0.543602        -0.321769        -1.001882
 H         2.243101         0.854474        -1.916209
 H         1.672478         2.130242        -0.828277
 H         4.216798         1.886289        -0.252896
 H         3.909493        -0.506205        -2.028454
 H         5.287217        -0.320474        -0.846548
 H         3.761569        -2.096525         0.426305
 H         3.959981         0.474475         1.913780
