19
Iteration:  4926
 C        -0.048784         0.059048        -0.036117
 C         1.439269         0.139141         0.053410
 C         2.144379         1.043384        -0.884863
 C         3.570378         0.925758        -0.380760
 C         4.294221        -0.322620        -0.941544
 C         3.382710        -1.087260         0.052607
 O         2.053973        -1.273550        -0.340952
 C         3.320941         0.204626         1.018043
 O         1.962457         0.355899         1.329017
 H        -0.498717        -0.692217         0.564468
 H        -0.628394         0.851673         0.378023
 H        -0.395298        -0.132386        -1.062263
 H         2.145519         0.803662        -1.938001
 H         1.955242         2.061458        -0.676944
 H         4.217223         1.769064        -0.305325
 H         4.345653        -0.603516        -2.097919
 H         5.298035        -0.459352        -0.508437
 H         3.850098        -1.998574         0.429994
 H         3.930048         0.363637         1.921436
