19
Iteration:  4290
 C        -0.073873        -0.061578         0.008590
 C         1.378692         0.088885         0.035551
 C         2.112310         1.122902        -0.918930
 C         3.650737         0.975141        -0.400421
 C         4.291529        -0.403695        -0.866989
 C         3.403707        -1.092844         0.170985
 O         2.024694        -1.167499        -0.455892
 C         3.371466         0.216019         0.940531
 O         2.020018         0.340915         1.332218
 H        -0.594171        -0.536737         0.855138
 H        -0.619177         0.891139         0.203193
 H        -0.427719        -0.421515        -0.926352
 H         2.030863         0.868403        -1.988932
 H         1.796840         2.275262        -0.779788
 H         4.272852         1.846874        -0.203390
 H         4.116568        -0.871227        -1.846216
 H         5.215053        -0.631215        -0.401548
 H         3.653670        -2.027134         0.641716
 H         3.950911         0.521177         1.869790
