19
Iteration:  1884charge 0 multiplicity 1
 C        -0.065354         0.007993        -0.154414
 C         1.455971         0.075108         0.025342
 C         2.188962         0.980323        -0.880749
 C         3.613887         0.974104        -0.415762
 C         4.125527        -0.316751        -0.928541
 C         3.449149        -1.081589         0.123900
 O         1.994723        -1.325662        -0.180048
 C         3.364643         0.235738         0.981389
 O         2.013422         0.442106         1.329110
 H        -0.463705        -0.922444         0.319192
 H        -0.490699         0.966245         0.274677
 H        -0.272632        -0.109847        -1.233277
 H         2.242926         0.998347        -1.940905
 H         1.811649         1.985756        -0.561472
 H         4.058548         2.005841        -0.644427
 H         3.965586        -0.458435        -2.056202
 H         5.178993        -0.373934        -0.749779
 H         3.884119        -2.063655         0.492909
 H         4.082584         0.432880         1.793192
