19
Iteration:  2108charge 0 multiplicity 1
 C        -0.078354         0.098463         0.000545
 C         1.433311        -0.052266        -0.016917
 C         2.155727         1.125231        -0.941385
 C         3.574368         0.963035        -0.438807
 C         4.228548        -0.349726        -0.918971
 C         3.423623        -1.124537         0.105675
 O         2.087881        -1.274454        -0.298789
 C         3.378946         0.224866         1.050096
 O         1.923055         0.368598         1.291912
 H        -0.411987        -0.518977         0.914612
 H        -0.278432         1.166660         0.099301
 H        -0.359875        -0.094094        -1.021602
 H         1.999453         0.932763        -2.004337
 H         1.707820         1.976666        -0.593016
 H         4.303881         1.854113        -0.329125
 H         4.135668        -0.458292        -1.953958
 H         5.279446        -0.427266        -0.571211
 H         3.817551        -2.063290         0.530702
 H         3.957522         0.325634         2.036457
