19
Iteration:  3448charge 0 multiplicity 1
 C        -0.102028        -0.043760         0.045950
 C         1.392069         0.087291        -0.005697
 C         2.124414         1.084815        -0.935613
 C         3.586229         0.956002        -0.438097
 C         4.336188        -0.396221        -0.797508
 C         3.385053        -1.157320         0.122339
 O         2.014658        -1.146083        -0.387862
 C         3.397548         0.179437         0.955806
 O         1.999388         0.410047         1.288877
 H        -0.236096        -0.947488         0.627787
 H        -0.469107         0.961117         0.446522
 H        -0.577846        -0.072958        -0.944567
 H         2.002860         0.858325        -1.967009
 H         1.684536         2.045003        -0.842306
 H         4.234359         1.846708        -0.320183
 H         4.496448        -0.647542        -1.844368
 H         5.349945        -0.114860        -0.249924
 H         3.493320        -2.140225         0.606255
 H         4.083921         0.293401         1.783313
