19
Iteration:  2150
 C        -0.065600        -0.173351        -0.150021
 C         1.482545         0.091437         0.049983
 C         2.164687         1.193592        -0.875259
 C         3.735765         0.958715        -0.363943
 C         4.123414        -0.371208        -0.994412
 C         3.306373        -1.106893         0.091221
 O         2.005017        -1.206112        -0.238153
 C         3.358267         0.200740         1.020825
 O         2.005755         0.430110         1.376594
 H        -0.603638        -0.675521         0.701366
 H        -0.509430         0.790447        -0.275925
 H        -0.148466        -0.590779        -1.120162
 H         2.169986         1.024646        -1.945464
 H         1.928805         2.168695        -0.605533
 H         4.379607         1.883932        -0.681534
 H         4.015791        -0.676772        -1.980987
 H         5.222268        -0.493901        -0.804438
 H         3.787371        -2.003035         0.322388
 H         4.039076         0.301659         1.928312
