19
Iteration:  2534
 C        -0.003802        -0.066121        -0.012600
 C         1.454617         0.099350        -0.041753
 C         2.156497         1.226032        -0.841508
 C         3.591500         0.939503        -0.426533
 C         4.222622        -0.392521        -0.949932
 C         3.399704        -1.116095         0.184561
 O         2.040001        -1.237675        -0.255936
 C         3.386679         0.221997         0.966946
 O         1.967898         0.381550         1.238808
 H        -0.406096        -0.600595         0.794091
 H        -0.624485         0.763297        -0.159834
 H        -0.450240        -0.613972        -0.831456
 H         1.924876         1.107837        -1.939398
 H         1.635788         2.066491        -0.298228
 H         4.309971         1.737389        -0.637511
 H         3.991330        -0.665017        -2.025678
 H         5.288383        -0.533805        -0.691603
 H         3.620588        -2.118476         0.623853
 H         3.817070         0.438686         1.972216
