19
Iteration:  1631
 C        -0.067088         0.094565        -0.050527
 C         1.457510         0.055635         0.029225
 C         2.113397         1.043337        -0.949105
 C         3.604666         0.952910        -0.434376
 C         4.296918        -0.351850        -0.914439
 C         3.446404        -1.081114         0.114861
 O         1.976381        -1.220813        -0.249195
 C         3.345131         0.203434         0.989804
 O         2.005334         0.317036         1.342154
 H        -0.529719        -0.729768         0.503271
 H        -0.608818         1.029096         0.181890
 H        -0.542929         0.005916        -1.086360
 H         2.049682         0.674362        -1.925951
 H         1.750653         2.007556        -0.848647
 H         4.259923         1.870275        -0.428474
 H         4.131537        -0.436342        -1.993403
 H         5.354924        -0.322456        -0.709192
 H         3.821099        -2.061306         0.550367
 H         3.966103         0.244042         1.932506
