19
Iteration:   777charge 0 multiplicity 1
 C         0.006147         0.069903        -0.158941
 C         1.451004         0.004104         0.022411
 C         2.123438         1.065562        -0.859594
 C         3.559376         0.988070        -0.442070
 C         4.196912        -0.315090        -0.991774
 C         3.417744        -1.154792         0.145061
 O         2.008640        -1.255164        -0.210580
 C         3.389092         0.198497         1.056076
 O         1.983213         0.410982         1.351278
 H        -0.532155        -0.529106         0.498736
 H        -0.345522         1.117884        -0.026699
 H        -0.050808        -0.422884        -1.154950
 H         2.016142         0.630409        -1.875435
 H         1.760441         2.064617        -0.869941
 H         4.066620         1.952130        -0.530780
 H         4.013349        -0.632134        -2.042362
 H         5.293791        -0.327542        -0.817319
 H         3.835545        -2.119263         0.491344
 H         4.068360         0.324157         1.915716
