19
Iteration:  2962charge 0 multiplicity 1
 C        -0.023085        -0.015359        -0.096682
 C         1.476205         0.143033        -0.031224
 C         2.177001         1.208474        -0.849591
 C         3.691612         0.968988        -0.298835
 C         4.183792        -0.340797        -1.039992
 C         3.418356        -1.082061         0.149231
 O         1.990344        -1.346684        -0.163772
 C         3.337405         0.184994         0.949628
 O         1.918650         0.335417         1.251333
 H        -0.308047        -0.733931         0.637875
 H        -0.478593         1.041486        -0.152251
 H        -0.343010        -0.539716        -1.007563
 H         2.139623         1.157985        -1.947879
 H         1.908580         2.168054        -0.465886
 H         4.360420         1.869951        -0.168751
 H         3.794402        -0.448171        -2.069123
 H         5.198888        -0.596652        -1.059984
 H         3.983560        -2.024744         0.597207
 H         3.784165         0.301688         1.932701
