19
Iteration:  4154charge 0 multiplicity 1
 C        -0.091310        -0.011597         0.055255
 C         1.440748         0.133222         0.002443
 C         2.196227         1.079875        -0.929631
 C         3.615992         0.962920        -0.353518
 C         4.263506        -0.300481        -0.890090
 C         3.400807        -1.137617         0.060777
 O         2.017785        -1.232580        -0.308935
 C         3.372462         0.159561         0.959194
 O         1.919822         0.387970         1.269827
 H        -0.214180        -0.837935         0.753776
 H        -0.570862         0.829150         0.503098
 H        -0.443501        -0.185346        -0.940581
 H         2.288002         0.799862        -2.007592
 H         1.907611         2.132765        -0.970503
 H         4.249856         1.793191        -0.024814
 H         4.207631        -0.507633        -2.025814
 H         5.336667        -0.485865        -0.807198
 H         3.733683        -2.143286         0.451084
 H         3.839887         0.317097         1.923049
