19
Iteration:  1897charge 0 multiplicity 1
 C        -0.010838        -0.054046        -0.108458
 C         1.446112        -0.004650         0.009224
 C         2.121705         1.119095        -0.896007
 C         3.586376         0.969765        -0.394256
 C         4.308756        -0.403163        -0.984376
 C         3.348996        -1.100366         0.114702
 O         2.015956        -1.211270        -0.213107
 C         3.346022         0.283578         0.971608
 O         1.996035         0.429385         1.361103
 H        -0.421829        -0.819058         0.525068
 H        -0.546314         0.900931         0.232483
 H        -0.338217        -0.164428        -1.197025
 H         1.880792         0.726658        -1.849020
 H         1.643000         2.066667        -0.753667
 H         4.368006         1.852935        -0.419109
 H         4.101565        -0.726813        -2.043045
 H         5.333230        -0.567152        -0.696726
 H         3.721655        -2.050135         0.562689
 H         4.023514         0.398409         1.810673
