19
Iteration:  2662
 C        -0.092527        -0.052866        -0.038089
 C         1.422864         0.077342        -0.042722
 C         2.184219         1.098473        -0.889036
 C         3.629316         0.893919        -0.424294
 C         4.270185        -0.363025        -0.917445
 C         3.382529        -1.073621         0.142065
 O         2.018053        -1.180899        -0.275963
 C         3.347560         0.229150         0.965644
 O         2.001007         0.428693         1.326507
 H        -0.425155        -1.024091         0.402021
 H        -0.494813         0.759880         0.703011
 H        -0.389269        -0.267561        -1.134029
 H         1.867511         0.698319        -1.889293
 H         1.743703         2.075842        -0.650984
 H         4.208192         1.896111        -0.574086
 H         4.227500        -0.809845        -1.879906
 H         5.316136        -0.547733        -0.479325
 H         3.651826        -2.074790         0.407915
 H         3.983074         0.450828         1.816674
