19
Iteration:  3325
 C        -0.030609        -0.009952         0.115936
 C         1.491755         0.058557        -0.102071
 C         2.261286         1.097916        -0.966054
 C         3.645215         0.924598        -0.321904
 C         4.252235        -0.309526        -0.868163
 C         3.391519        -1.090564         0.031398
 O         1.999781        -1.227477        -0.342662
 C         3.259295         0.194700         1.018957
 O         1.890903         0.382056         1.279413
 H        -0.205867        -0.433308         1.110451
 H        -0.488839         0.942768         0.168691
 H        -0.499352        -0.579298        -0.673996
 H         2.102535         0.982879        -2.047091
 H         1.711582         1.999377        -0.690327
 H         4.250146         1.827925        -0.415941
 H         4.288147        -0.525990        -1.947375
 H         5.305652        -0.438033        -0.607404
 H         3.863080        -2.091755         0.347196
 H         3.891406         0.280454         1.949755
