19
Iteration:  4215
 C         0.006699        -0.003194        -0.136970
 C         1.432349         0.050208         0.064954
 C         2.119747         1.118109        -0.871534
 C         3.611272         0.949164        -0.415884
 C         4.248703        -0.416201        -1.026080
 C         3.397095        -1.088169         0.088102
 O         2.020417        -1.187744        -0.270154
 C         3.383215         0.226088         1.042181
 O         1.955334         0.359437         1.396845
 H        -0.589136        -0.870138         0.343694
 H        -0.533594         0.950533         0.194201
 H        -0.208177        -0.170365        -1.194421
 H         2.052484         0.830809        -1.964138
 H         1.698649         2.138783        -0.628602
 H         4.207403         1.925609        -0.380772
 H         3.953504        -0.596740        -2.000116
 H         5.303543        -0.423981        -0.678410
 H         3.685438        -2.039632         0.531573
 H         4.151481         0.302683         1.902236
