19
Iteration:  2934charge 0 multiplicity 1
 C        -0.077823         0.060984        -0.066261
 C         1.476440         0.037395        -0.041614
 C         2.127427         1.004908        -0.864845
 C         3.585971         0.999065        -0.356257
 C         4.243603        -0.330251        -0.928489
 C         3.462579        -1.102274         0.086948
 O         1.976697        -1.221558        -0.323955
 C         3.355432         0.180351         0.989480
 O         2.000436         0.373073         1.383063
 H        -0.478901        -0.468575         0.823774
 H        -0.249877         1.118707        -0.218969
 H        -0.554390        -0.394908        -0.950268
 H         2.207034         0.695539        -1.919400
 H         1.804062         2.148890        -0.841002
 H         4.068134         1.970210        -0.403029
 H         4.212409        -0.541058        -1.991519
 H         5.338125        -0.490959        -0.464698
 H         3.826336        -2.051865         0.288648
 H         3.829988         0.212991         1.990399
