19
Iteration:  3424
 C        -0.039634         0.022839         0.027211
 C         1.404722         0.049185         0.014928
 C         2.232762         1.043830        -0.964761
 C         3.681108         0.959021        -0.360601
 C         4.277110        -0.301253        -0.968628
 C         3.404325        -1.094344         0.087416
 O         1.997427        -1.261277        -0.269830
 C         3.322706         0.238989         0.973971
 O         1.873395         0.364436         1.346862
 H        -0.281507        -0.882970         0.490174
 H        -0.436560         0.935499         0.443264
 H        -0.366946         0.089628        -1.007423
 H         2.179848         0.711955        -2.025206
 H         1.791156         2.065956        -1.079287
 H         4.265565         1.889594        -0.380170
 H         4.186991        -0.365606        -2.044282
 H         5.335755        -0.511117        -0.634014
 H         3.762128        -2.082916         0.553124
 H         3.949557         0.305152         1.825540
