19
Iteration:  3165charge 0 multiplicity 1
 C        -0.064547         0.109679         0.005920
 C         1.420768         0.041303        -0.045043
 C         2.134108         1.068472        -0.896445
 C         3.612669         0.876565        -0.308746
 C         4.347012        -0.238303        -0.883953
 C         3.366991        -1.151652         0.062198
 O         2.031429        -1.254236        -0.321614
 C         3.335163         0.173122         0.936700
 O         1.980233         0.330957         1.306819
 H        -0.332541        -0.503210         0.868953
 H        -0.271385         1.178267         0.139570
 H        -0.677177        -0.068216        -0.894400
 H         2.055745         0.794098        -1.942808
 H         1.690423         2.124752        -0.910505
 H         3.985449         1.865705        -0.272467
 H         4.293860        -0.363685        -1.886994
 H         5.374039        -0.087172        -0.543569
 H         3.705165        -2.069284         0.405135
 H         3.887033         0.169259         1.908386
