19
Iteration:  3929
 C        -0.038658        -0.063096        -0.086542
 C         1.521359         0.103272         0.010725
 C         2.132680         1.266876        -0.855307
 C         3.569867         0.920265        -0.395158
 C         4.136788        -0.425212        -1.014486
 C         3.455739        -1.106290         0.212617
 O         2.067855        -1.220037        -0.310054
 C         3.317769         0.165581         0.992696
 O         1.977246         0.361942         1.337651
 H        -0.512248        -0.808019         0.583697
 H        -0.590628         0.892539        -0.003298
 H        -0.378166        -0.417927        -1.129635
 H         2.123258         1.094181        -1.933000
 H         1.900861         2.256947        -0.496912
 H         4.283178         1.833553        -0.320492
 H         3.668666        -0.672575        -1.996602
 H         5.290577        -0.393506        -0.860356
 H         3.984802        -1.931844         0.676627
 H         4.084202         0.364474         1.750905
