19
Iteration:  2940charge 0 multiplicity 1
 C        -0.088322         0.053878        -0.071015
 C         1.479535         0.017269         0.012287
 C         2.213035         1.063573        -0.869185
 C         3.603787         1.007542        -0.340659
 C         4.231517        -0.287609        -0.945524
 C         3.407860        -1.145514         0.078051
 O         2.008542        -1.275621        -0.286249
 C         3.315385         0.198567         1.015492
 O         1.977137         0.394146         1.335205
 H        -0.607474        -0.457704         0.732922
 H        -0.298615         1.167163        -0.214430
 H        -0.490131        -0.470131        -0.954015
 H         2.268308         0.763505        -1.932423
 H         1.699807         2.004190        -0.716857
 H         4.176848         1.951282        -0.480475
 H         4.085280        -0.477337        -2.031889
 H         5.249208        -0.449415        -0.753191
 H         3.855431        -2.205038         0.275861
 H         4.057689         0.210607         1.828810
