19
Iteration:   381charge 0 multiplicity 1
 C        -0.030990        -0.173597        -0.106503
 C         1.483406         0.088327         0.017932
 C         2.170968         1.208486        -0.898109
 C         3.655608         0.947964        -0.380520
 C         4.193645        -0.381096        -0.967371
 C         3.356283        -1.153325         0.089546
 O         2.007629        -1.127875        -0.232682
 C         3.391062         0.223073         1.004568
 O         1.931201         0.398353         1.357267
 H        -0.235074        -0.924723         0.737701
 H        -0.499710         0.691789         0.164781
 H        -0.229095        -0.490164        -1.153358
 H         2.017096         1.136481        -1.967351
 H         1.842374         2.204408        -0.576437
 H         4.379209         1.690799        -0.472097
 H         3.823307        -0.654138        -1.970558
 H         5.267490        -0.569802        -1.011944
 H         3.627709        -2.251865         0.357586
 H         4.065275         0.554415         1.874291
