19
Iteration:  4637
 C        -0.008755        -0.038021        -0.103717
 C         1.422913         0.107706         0.062917
 C         2.115634         1.132791        -0.835581
 C         3.600809         0.984386        -0.409912
 C         4.280000        -0.364138        -0.963577
 C         3.359224        -1.126473         0.180531
 O         2.013307        -1.230121        -0.350723
 C         3.383002         0.184353         1.024103
 O         1.984463         0.367883         1.298299
 H        -0.313822        -0.707785         0.759466
 H        -0.545766         0.931881        -0.027485
 H        -0.323714        -0.451716        -1.055548
 H         2.017585         1.054772        -1.909852
 H         1.916468         2.154387        -0.492954
 H         4.108522         1.926431        -0.519155
 H         3.949428        -0.607897        -1.935309
 H         5.294161        -0.510994        -0.795395
 H         3.826692        -2.045429         0.519783
 H         3.993668         0.311059         1.922508
