19
Iteration:  1383
 C        -0.094325         0.097564         0.015103
 C         1.345520         0.109682         0.101647
 C         2.172230         1.017867        -0.915419
 C         3.642628         0.996992        -0.407979
 C         4.386889        -0.289581        -0.899749
 C         3.400500        -1.101842         0.044362
 O         2.006748        -1.293997        -0.348798
 C         3.313133         0.154865         0.946892
 O         1.967600         0.307105         1.308153
 H        -0.539282        -0.279040         1.016234
 H        -0.383016         1.134740         0.057823
 H        -0.493368        -0.403551        -0.902214
 H         2.095269         0.753543        -1.939114
 H         1.658621         2.088325        -0.790013
 H         4.156158         2.011497        -0.323849
 H         4.542995        -0.480236        -2.008856
 H         5.292928        -0.243051        -0.350773
 H         3.722707        -1.954447         0.573731
 H         4.078190         0.155103         1.779146
