19
Iteration:  1921
 C        -0.088567        -0.062579         0.070266
 C         1.387389         0.139120        -0.021407
 C         2.191893         1.141454        -0.935357
 C         3.547019         0.931532        -0.441183
 C         4.295578        -0.396259        -0.864077
 C         3.409066        -1.138440         0.187378
 O         2.079177        -1.182224        -0.368825
 C         3.328378         0.221987         0.974654
 O         1.968105         0.388598         1.276809
 H        -0.238221        -0.749898         0.899300
 H        -0.844548         0.712190         0.214600
 H        -0.449692        -0.469129        -0.919603
 H         1.940956         0.905920        -1.963525
 H         1.969811         2.134380        -0.670711
 H         4.379207         1.673982        -0.651322
 H         4.125040        -0.769254        -1.848225
 H         5.384917        -0.389983        -0.579872
 H         3.859372        -1.994532         0.619136
 H         3.988424         0.433726         1.809924
