19
Iteration:  2276
 C        -0.067867        -0.085258        -0.091973
 C         1.538616         0.140423         0.038076
 C         2.110007         1.190845        -0.833997
 C         3.593197         0.977450        -0.406481
 C         4.137818        -0.474412        -0.957391
 C         3.472509        -1.107430         0.203047
 O         2.084484        -1.191337        -0.341798
 C         3.370100         0.194513         0.969400
 O         1.944906         0.390304         1.321335
 H        -0.355313        -1.073684         0.324935
 H        -0.647804         0.798227         0.272491
 H        -0.334545        -0.064858        -1.212372
 H         2.119291         1.095158        -1.892651
 H         1.775502         2.194478        -0.472724
 H         4.337370         1.697156        -0.420740
 H         3.735615        -0.895242        -1.929052
 H         5.183312        -0.439158        -0.860334
 H         3.502369        -2.082825         0.756939
 H         4.087028         0.383865         1.798384
