19
Iteration:  4324
 C        -0.032638        -0.030677        -0.103092
 C         1.424349         0.107961         0.052887
 C         2.198014         1.116850        -0.854601
 C         3.693586         0.939442        -0.345960
 C         4.192924        -0.313085        -1.012666
 C         3.388316        -1.135645         0.114190
 O         1.951685        -1.311256        -0.225510
 C         3.357365         0.208120         1.002785
 O         1.970268         0.420786         1.258588
 H        -0.205402        -0.965158         0.534132
 H        -0.463323         0.982075         0.106978
 H        -0.228044        -0.332100        -1.128371
 H         2.106494         1.075927        -1.966333
 H         1.769119         2.178051        -0.528351
 H         4.136384         1.949337        -0.236354
 H         4.138639        -0.497819        -2.050540
 H         5.231055        -0.493584        -0.847955
 H         3.853407        -2.043501         0.518685
 H         3.965118         0.502305         1.913139
