19
Iteration:  3737
 C        -0.093202         0.006677         0.111065
 C         1.420192         0.050896        -0.085985
 C         2.204348         1.082486        -0.869819
 C         3.592883         0.988664        -0.377747
 C         4.275994        -0.339897        -0.853242
 C         3.401447        -1.169521         0.172495
 O         2.091626        -1.215931        -0.386253
 C         3.323745         0.247172         0.958442
 O         1.956516         0.368889         1.193941
 H        -0.196728        -0.715695         0.934674
 H        -0.309581         1.142767         0.250913
 H        -0.656915        -0.346624        -0.877749
 H         1.849580         0.877355        -1.868194
 H         1.646970         1.970493        -0.576631
 H         4.216951         1.842324        -0.590983
 H         4.106098        -0.616053        -1.968350
 H         5.304398        -0.472695        -0.429974
 H         3.669568        -2.108385         0.699665
 H         3.820067         0.408345         1.916275
