19
Iteration:   148charge 0 multiplicity 1
 C        -0.038499        -0.135079         0.121271
 C         1.405704         0.108963        -0.093752
 C         2.175092         1.187239        -1.080416
 C         3.588706         0.984189        -0.486521
 C         4.234977        -0.435489        -0.838440
 C         3.417407        -1.069220         0.239864
 O         2.016509        -1.187062        -0.332501
 C         3.377106         0.202069         1.039103
 O         1.965410         0.368556         1.271724
 H        -0.211135        -0.934015         0.782227
 H        -0.379961         0.881637         0.701602
 H        -0.647806        -0.110554        -0.755947
 H         2.141169         0.847829        -2.163516
 H         1.867745         2.269633        -1.094757
 H         4.314377         1.877204        -0.561463
 H         3.915076        -0.924361        -1.800890
 H         5.374458        -0.345685        -0.671854
 H         3.818423        -2.098133         0.812192
 H         3.891145         0.349012         1.990413
