19
Iteration:   409
 C        -0.094311         0.020613         0.032432
 C         1.435127         0.042344        -0.005924
 C         2.190375         1.128257        -0.834999
 C         3.583456         0.943285        -0.386925
 C         4.264763        -0.301254        -0.925497
 C         3.427570        -1.121178         0.117798
 O         2.038080        -1.315296        -0.365858
 C         3.353374         0.198033         1.020410
 O         1.944046         0.395808         1.251844
 H        -0.303372        -0.462636         0.997015
 H        -0.521064         1.104824         0.071223
 H        -0.458111        -0.466627        -0.892013
 H         2.092814         1.063418        -1.956335
 H         1.886730         2.166669        -0.600804
 H         4.235345         1.872638        -0.654210
 H         4.068384        -0.738428        -1.918722
 H         5.390724        -0.300684        -0.777970
 H         3.809329        -2.059512         0.540979
 H         3.881096         0.432310         1.889435
