19
Iteration:   683
 C        -0.095158         0.081909        -0.014940
 C         1.441588         0.009522         0.017117
 C         2.141369         1.021649        -0.934253
 C         3.641742         0.987250        -0.443826
 C         4.312650        -0.350434        -0.873891
 C         3.417455        -1.045968         0.106664
 O         2.016263        -1.267048        -0.290423
 C         3.325367         0.226157         0.953123
 O         1.979522         0.371715         1.345460
 H        -0.699997        -0.754968         0.609441
 H        -0.404052         0.945636         0.490266
 H        -0.475680        -0.072528        -1.070658
 H         1.922198         0.701251        -2.024292
 H         1.691406         2.035122        -0.775345
 H         4.217530         1.982290        -0.633747
 H         4.351015        -0.530161        -1.930067
 H         5.309785        -0.565168        -0.408826
 H         3.610808        -2.055894         0.411993
 H         4.048211         0.304843         1.816638
