19
Iteration:  4927charge 0 multiplicity 1
 C        -0.054572         0.060217        -0.035677
 C         1.446025         0.135465         0.045367
 C         2.155503         1.044636        -0.883868
 C         3.555678         0.916179        -0.375218
 C         4.297751        -0.327299        -0.933876
 C         3.386252        -1.081542         0.045950
 O         2.055458        -1.268891        -0.338252
 C         3.313625         0.210741         1.018969
 O         1.963898         0.352069         1.329796
 H        -0.541682        -0.720336         0.559473
 H        -0.644533         0.881979         0.403758
 H        -0.442446        -0.154713        -1.012976
 H         2.170043         0.796832        -1.965631
 H         1.987753         2.068331        -0.704188
 H         4.242710         1.779681        -0.332907
 H         4.337294        -0.570368        -2.083823
 H         5.299008        -0.435772        -0.556050
 H         3.837670        -2.013977         0.422043
 H         3.961144         0.362496         1.909716
