19
Iteration:  3371
 C        -0.014296        -0.078786        -0.173634
 C         1.373864         0.050756         0.023877
 C         2.212365         1.190154        -0.784164
 C         3.598284         0.936383        -0.496220
 C         4.192834        -0.403343        -0.953305
 C         3.420231        -1.105467         0.139332
 O         2.038186        -1.161282        -0.254213
 C         3.306732         0.245717         0.985280
 O         2.003300         0.349027         1.400284
 H        -0.417429        -0.714593         0.573886
 H        -0.484729         0.927944         0.049607
 H        -0.177829        -0.394336        -1.249573
 H         1.914044         1.077245        -1.782353
 H         1.968579         2.182838        -0.631276
 H         4.113138         1.881186        -0.579755
 H         4.125127        -0.846725        -1.923576
 H         5.339645        -0.625058        -0.807724
 H         3.612113        -2.150364         0.453749
 H         3.985136         0.461671         1.757545
