19
Iteration:  1621
 C        -0.117358         0.048438        -0.107750
 C         1.451672         0.039236         0.019254
 C         2.153239         1.080462        -0.924522
 C         3.672502         0.998332        -0.388697
 C         4.216692        -0.304530        -0.963330
 C         3.379567        -1.107983         0.094853
 O         2.027228        -1.238046        -0.206756
 C         3.388980         0.216782         1.012401
 O         1.982870         0.323566         1.336825
 H        -0.628179        -0.600259         0.642173
 H        -0.227721         1.045996         0.290747
 H        -0.370751        -0.208912        -1.176601
 H         2.144971         0.789288        -1.911296
 H         1.595360         1.973631        -0.896078
 H         4.274943         1.975046        -0.534903
 H         4.026325        -0.798680        -1.943837
 H         5.225877        -0.557884        -0.732576
 H         3.647997        -2.126154         0.516931
 H         4.128488         0.317839         1.847568
