19
Iteration:  1547charge 0 multiplicity 1
 C        -0.086340        -0.012228         0.026150
 C         1.490225         0.111285         0.011568
 C         2.138738         1.064645        -0.886774
 C         3.645246         0.975268        -0.468971
 C         4.365587        -0.389208        -0.880340
 C         3.376857        -1.135282         0.141176
 O         1.980870        -1.175383        -0.379081
 C         3.326659         0.180172         0.994823
 O         1.955291         0.384779         1.306257
 H        -0.526068        -0.624365         0.903476
 H        -0.557820         0.916387         0.162963
 H        -0.417063        -0.497203        -0.861578
 H         2.034953         0.838513        -1.968709
 H         1.766245         2.214171        -0.748524
 H         4.078965         2.017802        -0.377572
 H         4.341876        -0.461829        -2.033218
 H         5.413350        -0.518595        -0.527351
 H         3.492085        -2.108300         0.604019
 H         4.033644         0.165266         1.840511
