19
Iteration:  3407charge 0 multiplicity 1
 C        -0.142012         0.042359        -0.103736
 C         1.524800         0.004456        -0.045048
 C         2.216856         1.097062        -0.890111
 C         3.613655         0.988281        -0.314834
 C         4.186395        -0.295372        -0.987059
 C         3.414225        -1.131326         0.134971
 O         2.046723        -1.292201        -0.194112
 C         3.332218         0.185835         1.018253
 O         1.998046         0.403943         1.253950
 H        -0.636317        -0.810118         0.494077
 H        -0.342751         1.048846         0.394596
 H        -0.676889         0.048275        -1.084262
 H         2.205306         0.789677        -1.935012
 H         1.732343         2.011960        -0.591584
 H         4.145928         1.973184        -0.362530
 H         3.678330        -0.687679        -1.894918
 H         5.306274        -0.408033        -0.906235
 H         3.885614        -2.045289         0.361535
 H         3.959061         0.419524         1.904417
