19
Iteration:   800charge 0 multiplicity 1
 C        -0.179204         0.069376        -0.067449
 C         1.415248        -0.005301         0.042642
 C         2.194901         1.077793        -0.938608
 C         3.695080         1.052591        -0.332860
 C         4.283093        -0.403604        -0.984098
 C         3.388403        -1.062819         0.108392
 O         2.056700        -1.304316        -0.215925
 C         3.325013         0.258023         0.949650
 O         1.961882         0.343612         1.318657
 H        -0.733230        -0.380415         0.749890
 H        -0.507769         1.087376        -0.061639
 H        -0.396139        -0.548287        -0.978604
 H         2.107578         0.837147        -2.058223
 H         1.972386         2.096694        -0.764120
 H         4.157485         2.110804        -0.355505
 H         4.018320        -0.583636        -2.035266
 H         5.369073        -0.701193        -0.832677
 H         3.919590        -1.851524         0.635504
 H         4.046542         0.294134         1.814158
