19
Iteration:   601
 C        -0.174886        -0.096156         0.013184
 C         1.399585         0.096861         0.042288
 C         2.169918         1.131521        -0.875303
 C         3.681905         0.954979        -0.428561
 C         4.286223        -0.402644        -0.909165
 C         3.394036        -1.114655         0.091968
 O         2.109608        -1.183958        -0.309728
 C         3.357553         0.200253         0.981785
 O         1.953721         0.458486         1.273135
 H        -0.478584        -0.620503         0.836689
 H        -0.634339         0.960168        -0.033766
 H        -0.460789        -0.543902        -0.874545
 H         1.946469         0.801854        -1.851809
 H         1.764620         2.151413        -0.697765
 H         4.168992         1.912815        -0.476135
 H         4.254292        -0.885772        -1.930824
 H         5.282120        -0.531280        -0.474732
 H         3.539693        -2.211358         0.277969
 H         3.958799         0.166402         1.899278
