19
Iteration:  3641charge 0 multiplicity 1
 C        -0.056113         0.067130        -0.107579
 C         1.408019        -0.014193        -0.031725
 C         2.169960         1.082543        -0.905229
 C         3.602492         0.999648        -0.455366
 C         4.178599        -0.406572        -0.969774
 C         3.448818        -1.083989         0.178345
 O         2.085118        -1.262267        -0.258984
 C         3.346072         0.229416         1.059911
 O         1.979116         0.350972         1.372784
 H        -0.587588        -0.676501         0.440264
 H        -0.415008         1.123129         0.084059
 H        -0.479080         0.038751        -1.167396
 H         2.068495         0.991523        -2.033204
 H         1.638946         2.063145        -0.550885
 H         4.149920         1.932030        -0.464650
 H         3.847551        -0.733862        -2.050264
 H         5.270461        -0.252656        -0.891634
 H         3.990440        -1.882519         0.769254
 H         4.039233         0.309263         1.910536
