19
Iteration:   261
 C        -0.000714        -0.107570        -0.053367
 C         1.464626         0.100636         0.037246
 C         2.164434         1.265628        -0.918065
 C         3.646405         0.938950        -0.450353
 C         4.234042        -0.434415        -0.955520
 C         3.411347        -1.119353         0.145485
 O         1.943653        -1.241766        -0.196610
 C         3.338676         0.263117         0.916360
 O         1.967666         0.384940         1.315321
 H        -0.284725        -0.910996         0.772556
 H        -0.642854         0.669789        -0.010290
 H        -0.000248        -0.653653        -1.072565
 H         2.059632         1.163726        -2.004017
 H         1.739015         2.192211        -0.519253
 H         4.248041         1.777034        -0.339748
 H         4.054035        -0.800390        -1.955529
 H         5.295796        -0.349813        -0.744553
 H         3.606382        -2.083005         0.639908
 H         3.957460         0.649447         1.759290
