19
Iteration:  3618charge 0 multiplicity 1
 C        -0.037283        -0.006455         0.010417
 C         1.440478         0.107478         0.030381
 C         2.148476         1.053480        -0.932296
 C         3.595286         0.939530        -0.357440
 C         4.310366        -0.357695        -0.893260
 C         3.392947        -1.139289         0.099714
 O         1.998882        -1.216458        -0.282848
 C         3.351326         0.202793         0.944631
 O         1.966687         0.432084         1.294859
 H        -0.381800        -0.971972         0.375467
 H        -0.719382         0.828977         0.284951
 H        -0.428029        -0.079750        -1.083966
 H         2.037170         0.751107        -2.013442
 H         1.715993         2.048810        -0.691439
 H         4.055944         1.907781        -0.416857
 H         4.320381        -0.551956        -2.056267
 H         5.326140        -0.433212        -0.392761
 H         3.789104        -2.151935         0.433500
 H         4.137715         0.433260         1.631073
