19
Iteration:   618
 C        -0.099187        -0.112937        -0.065611
 C         1.401453         0.092282         0.012069
 C         2.202798         1.109223        -0.852403
 C         3.662644         0.883380        -0.362906
 C         4.315000        -0.383149        -0.986435
 C         3.406255        -1.104081         0.149329
 O         1.936896        -1.204148        -0.295734
 C         3.339763         0.216233         0.945824
 O         1.987668         0.489874         1.326467
 H        -0.454327        -0.697814         0.948380
 H        -0.722323         0.717305        -0.113660
 H        -0.216681        -0.778079        -1.008425
 H         2.047227         1.147449        -1.979989
 H         1.889344         2.086058        -0.420379
 H         4.338362         1.763208        -0.430321
 H         3.986698        -0.416950        -2.000943
 H         5.421623        -0.499993        -0.993024
 H         3.893048        -1.934013         0.689326
 H         3.997859         0.459629         1.824255
