19
Iteration:  1989charge 0 multiplicity 1
 C        -0.035139         0.060394        -0.127564
 C         1.484178         0.002124         0.091405
 C         2.129967         1.038417        -0.892401
 C         3.615816         0.980152        -0.436276
 C         4.237659        -0.329751        -0.927524
 C         3.417399        -1.066600         0.094335
 O         2.010826        -1.256312        -0.236780
 C         3.325704         0.214391         0.981397
 O         2.002080         0.371130         1.354080
 H        -0.659757        -0.490270         0.647125
 H        -0.512441         1.017501        -0.155641
 H        -0.226654        -0.289162        -1.109577
 H         2.033250         0.667475        -1.954050
 H         1.723587         2.047067        -0.721056
 H         4.037386         1.957256        -0.404096
 H         3.923519        -0.595051        -1.924283
 H         5.366963        -0.319164        -0.905234
 H         3.646159        -2.021682         0.538675
 H         4.079786         0.224219         1.802451
