19
Iteration:  2378
 C        -0.114856         0.030150         0.076120
 C         1.401497         0.057833        -0.000681
 C         2.164048         1.133238        -0.911970
 C         3.609709         0.973139        -0.427373
 C         4.282360        -0.355529        -0.895321
 C         3.533952        -1.154894         0.148284
 O         2.034522        -1.260382        -0.347555
 C         3.365464         0.213957         0.937606
 O         1.893243         0.346659         1.278933
 H        -0.472267        -0.613449         0.889571
 H        -0.505487         1.039167         0.190076
 H        -0.427474        -0.449019        -0.820535
 H         2.085945         1.195280        -2.057589
 H         1.969592         2.250906        -0.662504
 H         4.241879         1.900329        -0.396529
 H         4.189076        -0.597330        -1.933353
 H         5.379050        -0.391627        -0.563236
 H         3.666142        -2.119988         0.534222
 H         3.843313         0.451660         1.877890
