19
Iteration:  2931
 C        -0.059077         0.055527        -0.063995
 C         1.441126         0.038203        -0.056284
 C         2.097345         0.998354        -0.877014
 C         3.585616         0.977274        -0.363508
 C         4.267248        -0.346563        -0.908801
 C         3.471159        -1.065299         0.080631
 O         1.971347        -1.195384        -0.340591
 C         3.381325         0.170130         0.990222
 O         2.009992         0.354375         1.395924
 H        -0.395740        -0.376828         0.878735
 H        -0.345075         1.203298        -0.131388
 H        -0.513149        -0.382373        -0.972089
 H         2.093635         0.658512        -1.969902
 H         1.798144         2.156141        -0.891454
 H         4.042094         1.995479        -0.332076
 H         4.286497        -0.589409        -1.943838
 H         5.271709        -0.442297        -0.416926
 H         3.819505        -2.124590         0.407773
 H         3.746136         0.251088         1.956049
