19
Iteration:  3469charge 0 multiplicity 1
 C        -0.068232        -0.068783         0.077424
 C         1.413246         0.123365        -0.032160
 C         2.178285         1.177142        -0.891311
 C         3.604615         0.915459        -0.478003
 C         4.336146        -0.469203        -0.850613
 C         3.410401        -1.084981         0.123705
 O         2.090544        -1.246090        -0.399964
 C         3.254829         0.237364         1.002219
 O         1.937872         0.411331         1.288725
 H        -0.367631        -0.769977         0.800687
 H        -0.550509         0.909267         0.364328
 H        -0.522357        -0.263755        -0.889404
 H         1.905955         1.233529        -1.935010
 H         1.950970         2.191341        -0.527371
 H         4.230655         1.798502        -0.350704
 H         4.179911        -0.815431        -1.863384
 H         5.403638        -0.479561        -0.650054
 H         3.620139        -2.054932         0.640000
 H         3.866472         0.468213         1.852339
