19
Iteration:   810
 C        -0.105972         0.012742         0.019944
 C         1.397104         0.011833        -0.042922
 C         2.210946         1.169095        -0.922004
 C         3.642919         0.993985        -0.435969
 C         4.301533        -0.369833        -0.950110
 C         3.448565        -1.083633         0.135580
 O         2.025138        -1.263946        -0.219631
 C         3.355623         0.193568         1.008122
 O         1.916938         0.374530         1.276218
 H        -0.500469        -0.447222         0.897877
 H        -0.361780         1.098519        -0.159050
 H        -0.534315        -0.454519        -0.935019
 H         2.171734         0.864205        -2.005868
 H         1.615600         2.037688        -0.870972
 H         4.232464         1.927058        -0.342686
 H         4.107667        -0.650475        -1.999326
 H         5.383865        -0.568861        -0.701522
 H         3.650061        -2.102788         0.540222
 H         3.876002         0.220630         2.005594
