19
Iteration:   790charge 0 multiplicity 1
 C        -0.113114         0.075676        -0.154186
 C         1.448274         0.093792         0.084939
 C         2.201109         0.967362        -0.865247
 C         3.652364         0.938557        -0.352698
 C         4.204287        -0.310351        -0.955258
 C         3.421410        -1.047525         0.117056
 O         2.014402        -1.337787        -0.240137
 C         3.342122         0.286532         0.910479
 O         2.002419         0.352830         1.357929
 H        -0.566678        -0.479755         0.697901
 H        -0.508157         1.010713        -0.242335
 H        -0.479823        -0.307561        -1.136691
 H         2.089793         0.718731        -2.002966
 H         1.708881         1.925767        -0.638867
 H         4.337373         1.915021        -0.372554
 H         3.860324        -0.436364        -1.979345
 H         5.333466        -0.399564        -0.860226
 H         3.777292        -1.962940         0.557732
 H         4.025173         0.547723         1.763429
