19
Iteration:  3714charge 0 multiplicity 1
 C        -0.066500        -0.059876         0.100339
 C         1.344108         0.067043        -0.012924
 C         2.211462         1.182299        -0.995724
 C         3.597562         0.966904        -0.426052
 C         4.396138        -0.399848        -0.934322
 C         3.384856        -1.152665         0.157063
 O         2.017300        -1.153250        -0.379434
 C         3.355835         0.216344         0.996415
 O         1.911205         0.383573         1.346693
 H        -0.196889        -0.822759         0.888001
 H        -0.662015         0.908923         0.128201
 H        -0.308469        -0.696979        -0.875395
 H         2.132341         0.855299        -2.027748
 H         1.756210         2.182473        -0.862293
 H         4.242785         1.851456        -0.301590
 H         4.321381        -0.758913        -1.981406
 H         5.418386        -0.482839        -0.486207
 H         3.572958        -2.130961         0.610983
 H         3.904313         0.399501         1.894860
