19
Iteration:  1016charge 0 multiplicity 1
 C        -0.088472         0.080395        -0.061671
 C         1.414287         0.027457         0.055292
 C         2.150895         1.058194        -0.874750
 C         3.640802         1.012471        -0.390724
 C         4.253718        -0.347660        -0.879302
 C         3.417399        -1.102692         0.142008
 O         2.002358        -1.333485        -0.338864
 C         3.350898         0.237637         0.954692
 O         2.007496         0.409757         1.297204
 H        -0.614476        -0.571654         0.730249
 H        -0.338138         1.129541        -0.097585
 H        -0.227474        -0.439791        -1.075947
 H         1.993970         0.698174        -1.972533
 H         1.603388         1.997562        -0.704024
 H         4.090416         1.942148        -0.405055
 H         4.124427        -0.493139        -1.958522
 H         5.336978        -0.320459        -0.703797
 H         3.895521        -2.017106         0.701482
 H         4.025285         0.090271         1.890810
