19
Iteration:  4805
 C        -0.074665         0.044650        -0.017280
 C         1.442172         0.061483        -0.062048
 C         2.123502         1.085199        -0.910452
 C         3.649964         0.982507        -0.344143
 C         4.263970        -0.314666        -0.869140
 C         3.406056        -1.141445         0.147936
 O         2.041531        -1.229274        -0.360968
 C         3.346975         0.181651         0.967078
 O         1.986243         0.329135         1.307347
 H        -0.241978        -0.554220         0.861049
 H        -0.500257         0.971805         0.427531
 H        -0.829695        -0.218660        -0.856833
 H         2.254405         0.830286        -1.958239
 H         1.697950         2.096304        -0.787660
 H         4.030684         1.985008        -0.490274
 H         4.012110        -0.627355        -1.961337
 H         5.305486        -0.222250        -0.619818
 H         3.655292        -2.153014         0.525437
 H         4.001629         0.324683         1.855383
