19
Iteration:  3058
 C        -0.076185         0.107679         0.063869
 C         1.421099         0.011811        -0.058631
 C         2.187343         1.127720        -0.965495
 C         3.702634         0.952577        -0.275758
 C         4.226915        -0.300789        -0.916239
 C         3.443676        -1.118995         0.105059
 O         2.090947        -1.277167        -0.327165
 C         3.301309         0.127233         1.012143
 O         1.883490         0.363469         1.234641
 H        -0.419859        -0.655585         0.726435
 H        -0.163768         1.135585         0.529266
 H        -0.552734         0.040529        -0.918095
 H         2.047821         0.638862        -1.948796
 H         1.505222         2.092263        -0.938445
 H         4.180761         1.947742        -0.191670
 H         4.081306        -0.433949        -2.115269
 H         5.301700        -0.485130        -0.707546
 H         3.800071        -2.042245         0.594053
 H         3.870014         0.316134         1.951307
