19
Iteration:  2279
 C        -0.075387        -0.079926        -0.108523
 C         1.551417         0.169841         0.019056
 C         2.104967         1.196833        -0.823049
 C         3.589400         0.946774        -0.395065
 C         4.116365        -0.479498        -0.971752
 C         3.448776        -1.130242         0.216449
 O         2.093129        -1.202264        -0.352851
 C         3.375371         0.214646         1.004921
 O         1.954209         0.395567         1.324569
 H        -0.317551        -1.085643         0.295794
 H        -0.607733         0.734460         0.266181
 H        -0.363075        -0.203457        -1.128479
 H         2.049734         1.138867        -1.949729
 H         1.747892         2.243918        -0.498327
 H         4.328927         1.761933        -0.564802
 H         3.722963        -0.746441        -1.961397
 H         5.250107        -0.475739        -0.830651
 H         3.687387        -2.047782         0.736031
 H         4.137283         0.355547         1.869874
