19
Iteration:  4037
 C        -0.132617        -0.027049        -0.050796
 C         1.463912         0.043218         0.003502
 C         2.137714         1.146502        -0.860808
 C         3.593256         0.897800        -0.342021
 C         4.255746        -0.342197        -0.950532
 C         3.371145        -1.116336         0.088685
 O         2.031594        -1.188437        -0.272029
 C         3.336601         0.194952         0.963015
 O         2.047521         0.371638         1.300256
 H        -0.354587        -0.835169         0.697176
 H        -0.455141         1.023467         0.229611
 H        -0.550765        -0.211812        -1.118821
 H         2.172002         1.062836        -1.972035
 H         1.735614         2.150521        -0.683569
 H         4.120294         1.935269        -0.245870
 H         4.417393        -0.593525        -2.011001
 H         5.283877        -0.400543        -0.596355
 H         3.759002        -2.136926         0.309121
 H         4.018481         0.336845         1.813530
