19
Iteration:  1235charge 0 multiplicity 1
 C        -0.036616         0.030859         0.053937
 C         1.476731         0.083994        -0.049209
 C         2.191450         1.078798        -0.872973
 C         3.605369         0.915219        -0.353814
 C         4.296163        -0.340613        -0.920124
 C         3.397465        -1.093708         0.140236
 O         1.996202        -1.266665        -0.388959
 C         3.301489         0.204001         0.942266
 O         1.946358         0.383502         1.281766
 H        -0.318024        -0.687898         0.888072
 H        -0.378411         0.982921         0.412729
 H        -0.690545        -0.180010        -0.783431
 H         2.305063         0.877515        -2.062800
 H         1.688027         2.038429        -0.664440
 H         4.071753         1.870073        -0.392558
 H         4.340473        -0.371406        -2.040162
 H         5.378149        -0.381095        -0.506477
 H         3.656549        -2.096340         0.785442
 H         3.802513         0.359145         1.871192
