19
Iteration:  4890charge 0 multiplicity 1
 C        -0.096130        -0.033079        -0.118568
 C         1.409963         0.100299        -0.037532
 C         2.211740         1.154960        -0.873487
 C         3.628533         0.896916        -0.346369
 C         4.149958        -0.346941        -1.003690
 C         3.409342        -1.073061         0.139378
 O         2.035590        -1.238473        -0.271394
 C         3.369034         0.212710         1.017356
 O         2.019549         0.346674         1.348755
 H        -0.249906        -0.917299         0.497285
 H        -0.432107         0.954403         0.105345
 H        -0.399038        -0.337582        -1.164733
 H         2.052504         1.262466        -1.922633
 H         1.789185         2.120357        -0.463763
 H         4.081313         1.874692        -0.256933
 H         4.040690        -0.734791        -2.036131
 H         5.257957        -0.516476        -0.640789
 H         3.764923        -2.040026         0.508671
 H         3.945808         0.486418         1.896828
