19
Iteration:  4481
 C        -0.072800         0.006385        -0.173697
 C         1.444517         0.031449         0.053084
 C         2.209093         1.120507        -0.853590
 C         3.635012         1.001534        -0.467839
 C         4.230510        -0.326939        -0.956838
 C         3.423745        -1.128590         0.097936
 O         1.941436        -1.283002        -0.277191
 C         3.408800         0.198562         1.004114
 O         1.965004         0.398623         1.432073
 H        -0.579280        -0.645070         0.571183
 H        -0.528267         1.042685        -0.013439
 H        -0.099208        -0.489147        -1.265414
 H         1.776610         0.996996        -1.975228
 H         1.760160         2.098645        -0.441834
 H         4.211138         1.956657        -0.495906
 H         4.031526        -0.601066        -1.924444
 H         5.353321        -0.423812        -0.709991
 H         3.736785        -2.124232         0.663299
 H         4.208143         0.328721         1.765224
