19
Iteration:  4410
 C        -0.060975        -0.051373         0.061977
 C         1.442104         0.129406        -0.073211
 C         2.177038         1.090086        -0.937378
 C         3.648452         0.974788        -0.333599
 C         4.335551        -0.363119        -0.861318
 C         3.349842        -1.174150         0.078967
 O         1.972387        -1.206762        -0.326116
 C         3.341393         0.194761         0.960504
 O         1.935509         0.405566         1.272138
 H        -0.231691        -0.738397         0.928293
 H        -0.518040         0.810083         0.556572
 H        -0.505032        -0.391819        -0.851481
 H         2.308130         0.958196        -2.004081
 H         1.862801         2.184646        -0.781967
 H         4.185393         1.916748        -0.274445
 H         4.263680        -0.612290        -2.077889
 H         5.344506        -0.391202        -0.418966
 H         3.728581        -2.163614         0.258689
 H         3.951352         0.469140         1.856917
