19
Iteration:  1661
 C        -0.103907         0.003281         0.107219
 C         1.419191         0.024336        -0.047975
 C         2.110288         1.107004        -0.948997
 C         3.639806         0.979061        -0.438690
 C         4.321601        -0.438533        -0.814963
 C         3.367828        -1.123959         0.113645
 O         2.068263        -1.220643        -0.380770
 C         3.352598         0.214417         0.972971
 O         1.972501         0.436455         1.275593
 H        -0.380162        -0.838633         0.672410
 H        -0.372518         0.956767         0.708036
 H        -0.687323         0.166426        -0.868724
 H         1.980980         0.689991        -2.039606
 H         1.682389         2.118417        -0.780823
 H         4.292983         1.778692        -0.481985
 H         4.323211        -0.518872        -1.868413
 H         5.356287        -0.314740        -0.402478
 H         3.765440        -2.072270         0.505195
 H         3.820736         0.220306         1.997488
