19
Iteration:  1345
 C        -0.040382        -0.059262        -0.012528
 C         1.518824         0.095625        -0.035208
 C         2.219115         1.145594        -0.819745
 C         3.661941         0.950160        -0.384881
 C         4.149395        -0.361157        -0.982294
 C         3.322422        -1.067598         0.142024
 O         2.038392        -1.232921        -0.358738
 C         3.350582         0.207458         0.994273
 O         1.929279         0.379398         1.345888
 H        -0.357725        -0.784315         0.704178
 H        -0.389102         0.979944         0.010601
 H        -0.399588        -0.434518        -0.950277
 H         2.117985         1.008820        -1.950428
 H         1.764721         2.068318        -0.537035
 H         4.361470         1.765766        -0.422481
 H         4.003230        -0.764648        -1.954651
 H         5.283154        -0.392196        -0.897178
 H         3.864216        -2.029938         0.521229
 H         3.806250         0.139097         1.946954
