19
Iteration:  1002
 C        -0.043592        -0.012904         0.018054
 C         1.477693         0.029070        -0.063384
 C         2.184231         1.078950        -0.924899
 C         3.602965         0.987143        -0.344748
 C         4.266044        -0.354490        -0.887567
 C         3.392128        -1.103614         0.144315
 O         2.019257        -1.234268        -0.342746
 C         3.324076         0.224459         0.963755
 O         1.949534         0.388153         1.309057
 H        -0.257579        -0.445223         0.901819
 H        -0.502991         1.047270         0.003721
 H        -0.640406        -0.476803        -0.755110
 H         2.214096         0.855585        -1.946425
 H         1.745163         2.163454        -0.892921
 H         4.248622         1.895483        -0.345767
 H         4.077865        -0.813075        -1.913173
 H         5.296152        -0.516649        -0.618362
 H         3.575959        -2.142153         0.533434
 H         4.021980         0.612093         1.788175
