19
Iteration:  2780charge 0 multiplicity 1
 C        -0.047228        -0.042561         0.087343
 C         1.462892         0.088278        -0.077177
 C         2.249629         1.063317        -0.962987
 C         3.637173         0.959338        -0.304158
 C         4.260567        -0.338625        -0.941806
 C         3.362090        -1.096600         0.161381
 O         2.006115        -1.215580        -0.369145
 C         3.246244         0.176596         0.976189
 O         1.933515         0.446093         1.295628
 H        -0.335697        -0.694528         0.913945
 H        -0.615390         0.865426         0.499011
 H        -0.479094        -0.625255        -0.755965
 H         2.356538         0.808546        -2.020124
 H         2.004122         2.115347        -0.897067
 H         4.298400         1.882432        -0.424557
 H         4.248507        -0.623908        -1.986942
 H         5.416411        -0.487956        -0.731551
 H         3.675827        -1.955449         0.729810
 H         4.055561         0.142160         1.664726
