19
Iteration:   977charge 0 multiplicity 1
 C        -0.080666        -0.092845         0.110195
 C         1.466359         0.153969         0.006117
 C         2.217357         1.163030        -0.952390
 C         3.648003         0.930423        -0.437809
 C         4.329083        -0.386770        -0.891272
 C         3.413813        -1.111712         0.157920
 O         2.021233        -1.207450        -0.351059
 C         3.274516         0.181759         1.012932
 O         1.886753         0.444700         1.218155
 H        -0.108200        -0.804833         1.005575
 H        -0.826438         0.709115         0.129957
 H        -0.495728        -0.659269        -0.699486
 H         2.072820         0.974152        -2.031770
 H         1.950463         2.220039        -0.848120
 H         4.423852         1.826261        -0.470765
 H         4.202161        -0.855065        -1.889623
 H         5.421546        -0.429792        -0.617473
 H         3.601678        -2.070842         0.594682
 H         3.728299         0.075154         1.963712
