19
Iteration:  4551charge 0 multiplicity 1
 C        -0.100176         0.002982         0.032182
 C         1.395642         0.100894         0.084372
 C         2.145031         1.091904        -0.928123
 C         3.650011         0.956584        -0.415637
 C         4.335772        -0.336160        -0.845569
 C         3.439246        -1.117891         0.166212
 O         2.020907        -1.191512        -0.359952
 C         3.321194         0.165306         0.888508
 O         1.959078         0.359660         1.247724
 H        -0.392633        -0.941795         0.663961
 H        -0.481549         0.867621         0.646877
 H        -0.443523        -0.122002        -1.015524
 H         2.047897         0.965617        -2.003101
 H         1.637779         2.117329        -0.663012
 H         4.229522         1.872735        -0.483472
 H         4.473358        -0.694555        -1.929299
 H         5.307282        -0.349580        -0.429833
 H         3.600841        -2.153558         0.442699
 H         3.822695         0.212963         1.862180
