19
Iteration:  4514
 C        -0.027303        -0.011946         0.037652
 C         1.488062         0.074872        -0.035028
 C         2.200110         1.150011        -0.955469
 C         3.610875         0.982997        -0.360517
 C         4.210816        -0.344562        -0.937383
 C         3.435351        -1.157128         0.128149
 O         2.026854        -1.213217        -0.298707
 C         3.338606         0.110960         1.015661
 O         1.881773         0.415179         1.274885
 H        -0.262903        -0.869574         0.687461
 H        -0.593119         0.904177         0.321518
 H        -0.498319        -0.303893        -0.968918
 H         2.139234         0.897573        -2.087762
 H         1.970253         2.206433        -0.798631
 H         4.233754         1.869024        -0.205975
 H         3.957726        -0.627450        -1.898196
 H         5.342884        -0.355309        -0.864905
 H         3.852005        -2.081937         0.641647
 H         3.961132         0.295071         1.921033
