19
Iteration:   765charge 0 multiplicity 1
 C         0.027894        -0.038805        -0.116156
 C         1.521024         0.081528         0.064387
 C         2.063037         1.162805        -0.989926
 C         3.553494         1.004869        -0.403723
 C         4.203358        -0.437928        -0.947744
 C         3.431519        -1.101545         0.106294
 O         2.068811        -1.223215        -0.172018
 C         3.300513         0.137705         1.013551
 O         1.997649         0.408393         1.336890
 H        -0.509925        -0.667527         0.471996
 H        -0.342843         1.090983        -0.026314
 H        -0.311272        -0.072977        -1.164949
 H         1.977098         1.041817        -2.049728
 H         1.562480         2.057856        -0.659932
 H         4.142846         1.864356        -0.496533
 H         4.066988        -0.750568        -2.014714
 H         5.253211        -0.485672        -0.669046
 H         3.685412        -2.132777         0.466403
 H         3.928376         0.214219         1.877512
