19
Iteration:   264
 C         0.042025        -0.117990        -0.035296
 C         1.471740         0.129606         0.067182
 C         2.170740         1.235315        -0.930264
 C         3.642839         0.954213        -0.466469
 C         4.265380        -0.417625        -0.936662
 C         3.390594        -1.132498         0.121143
 O         1.959021        -1.229939        -0.187403
 C         3.277546         0.236726         0.906724
 O         1.957182         0.365975         1.313237
 H        -0.230983        -0.827685         0.776942
 H        -0.707752         0.740752         0.008839
 H        -0.071621        -0.549233        -1.046248
 H         1.959764         1.159865        -1.994719
 H         1.755498         2.235044        -0.644451
 H         4.298663         1.864040        -0.457504
 H         4.114272        -0.835059        -1.948775
 H         5.304700        -0.379317        -0.714310
 H         3.565663        -2.006320         0.587184
 H         3.942392         0.594904         1.791265
