19
Iteration:  2060charge 0 multiplicity 1
 C        -0.062585        -0.094875         0.068879
 C         1.402055         0.144020         0.039669
 C         2.225817         1.107920        -0.979077
 C         3.619750         0.956611        -0.369871
 C         4.276506        -0.371386        -0.869508
 C         3.412613        -1.160219         0.082770
 O         2.025277        -1.213722        -0.357745
 C         3.281002         0.236618         0.970857
 O         1.970825         0.442278         1.298776
 H        -0.254567        -1.006911         0.560619
 H        -0.509529         0.708545         0.676684
 H        -0.344987         0.182069        -0.972879
 H         2.130266         0.601370        -1.920286
 H         1.687108         2.098270        -0.906684
 H         4.244022         1.886635        -0.357120
 H         4.200779        -0.741957        -1.946066
 H         5.289855        -0.623109        -0.519092
 H         3.615363        -2.233396         0.248788
 H         3.863622         0.479779         1.837624
