19
Iteration:  3907charge 0 multiplicity 1
 C        -0.057579         0.041017        -0.037540
 C         1.511720         0.029669        -0.013704
 C         2.143091         1.085539        -0.811618
 C         3.643142         0.992497        -0.420566
 C         4.219900        -0.357215        -0.978534
 C         3.404897        -1.133423         0.088900
 O         2.057596        -1.243101        -0.293629
 C         3.320002         0.220184         1.048923
 O         1.934439         0.353614         1.299496
 H        -0.514989        -0.558228         0.794232
 H        -0.395008         1.098362        -0.047664
 H        -0.318870        -0.447542        -1.006672
 H         2.012289         0.906051        -1.887616
 H         1.760418         2.038317        -0.401643
 H         4.171988         2.014726        -0.433328
 H         3.812188        -0.646632        -1.989510
 H         5.376896        -0.326294        -0.870286
 H         3.748238        -2.099801         0.474155
 H         3.975687         0.536118         1.849359
