19
Iteration:  2038
 C        -0.036052        -0.118788        -0.049492
 C         1.462584         0.086099        -0.064469
 C         2.216048         1.130728        -0.895436
 C         3.707233         0.946196        -0.368167
 C         4.195219        -0.344331        -0.998599
 C         3.382605        -1.072934         0.205569
 O         1.988257        -1.235166        -0.257446
 C         3.328571         0.187749         0.988015
 O         1.973932         0.441424         1.288870
 H        -0.269815        -1.010213         0.460518
 H        -0.568830         0.649190         0.571412
 H        -0.530510         0.066007        -1.049353
 H         2.000763         1.003754        -1.946813
 H         1.791314         2.071434        -0.410599
 H         4.162733         1.932618        -0.561947
 H         3.938669        -0.673805        -2.057895
 H         5.237970        -0.578420        -0.784554
 H         3.506655        -2.030082         0.733728
 H         3.987182         0.322057         1.817207
