19
Iteration:  4253
 C        -0.108718         0.019709         0.079378
 C         1.519733         0.024892        -0.046002
 C         2.175185         1.171013        -0.971693
 C         3.610347         0.970806        -0.299069
 C         4.290196        -0.340463        -0.937515
 C         3.419015        -1.093709         0.087314
 O         2.011706        -1.276475        -0.276634
 C         3.327630         0.159847         1.006366
 O         1.902203         0.389338         1.241862
 H        -0.324276        -0.628759         0.892396
 H        -0.259571         1.070103         0.106309
 H        -0.580101        -0.344897        -0.872767
 H         1.979927         0.934202        -2.044737
 H         1.737830         2.159367        -0.715709
 H         4.219500         1.862088        -0.136865
 H         4.383162        -0.683437        -2.132209
 H         5.429996        -0.518798        -0.669685
 H         3.765116        -2.119655         0.337229
 H         3.942822         0.344497         1.850713
