19
Iteration:  4486
 C        -0.076616         0.013432        -0.173278
 C         1.472735         0.009304         0.029255
 C         2.134497         1.091638        -0.846892
 C         3.691457         1.000923        -0.426345
 C         4.226067        -0.335929        -0.948487
 C         3.382673        -1.157183         0.091574
 O         1.956843        -1.243974        -0.271920
 C         3.400725         0.240735         1.000006
 O         1.983976         0.385606         1.420290
 H        -0.533364        -0.730325         0.513722
 H        -0.622061         0.940428        -0.035056
 H        -0.322003        -0.454522        -1.100229
 H         1.909847         0.977118        -1.866324
 H         1.918336         2.136775        -0.630105
 H         4.319769         1.883613        -0.423881
 H         4.083883        -0.541836        -2.080540
 H         5.279062        -0.449264        -0.839916
 H         3.777566        -1.982785         0.606962
 H         4.078263         0.424808         1.862121
