19
Iteration:  4032charge 0 multiplicity 1
 C        -0.122373         0.006098        -0.038417
 C         1.472908         0.080804        -0.017027
 C         2.099139         1.124576        -0.861528
 C         3.580047         0.920462        -0.347155
 C         4.272647        -0.321303        -0.935556
 C         3.376039        -1.119702         0.124607
 O         2.055798        -1.236871        -0.307389
 C         3.332334         0.174997         0.958646
 O         2.040292         0.368210         1.282397
 H        -0.483483        -0.689013         0.738541
 H        -0.434182         0.944669         0.395163
 H        -0.519770        -0.177894        -0.985119
 H         2.076847         0.960287        -1.951524
 H         1.816922         2.233706        -0.593420
 H         4.210585         1.752663        -0.319672
 H         4.369528        -0.567561        -2.011633
 H         5.301265        -0.444935        -0.508240
 H         3.806372        -2.112824         0.271235
 H         3.911584         0.432387         1.843649
