19
Iteration:  1123charge 0 multiplicity 1
 C        -0.088645         0.047080         0.031318
 C         1.428391         0.023070         0.016655
 C         2.155898         1.058212        -0.880503
 C         3.610030         0.901133        -0.382549
 C         4.338046        -0.321654        -0.847449
 C         3.367900        -1.103173         0.083488
 O         2.013966        -1.238534        -0.418516
 C         3.339597         0.256108         0.991948
 O         1.992579         0.407583         1.291253
 H        -0.358047        -0.728579         0.690019
 H        -0.351359         0.975301         0.529029
 H        -0.524546        -0.091277        -0.988361
 H         2.157116         0.614184        -1.864895
 H         1.469985         1.927791        -0.905678
 H         4.102570         1.919950        -0.486211
 H         4.332192        -0.625185        -1.930804
 H         5.281122        -0.477007        -0.346464
 H         3.621689        -2.158013         0.395473
 H         4.072421         0.437186         1.869059
