19
Iteration:  1000charge 0 multiplicity 1
 C        -0.042959        -0.021761         0.034556
 C         1.466897         0.046161        -0.089552
 C         2.187176         1.085444        -0.940242
 C         3.609015         0.963212        -0.343081
 C         4.258413        -0.358742        -0.888694
 C         3.392708        -1.102769         0.138985
 O         2.033470        -1.216544        -0.330245
 C         3.321002         0.214977         0.980647
 O         1.941010         0.380046         1.310126
 H        -0.209446        -0.503159         0.962249
 H        -0.452659         1.038762        -0.011313
 H        -0.613598        -0.491591        -0.726194
 H         2.204660         0.889632        -1.973236
 H         1.788511         2.136036        -0.882885
 H         4.250140         1.942143        -0.376660
 H         4.102778        -0.761763        -1.925293
 H         5.309768        -0.527891        -0.606181
 H         3.500671        -2.088655         0.505045
 H         3.942311         0.657062         1.728277
