19
Iteration:  3944
 C        -0.063869        -0.099807        -0.104099
 C         1.390920         0.101104         0.004467
 C         2.213341         1.152713        -0.801719
 C         3.662802         0.987566        -0.431785
 C         4.188846        -0.372841        -0.956665
 C         3.384005        -1.124192         0.115867
 O         2.012653        -1.182245        -0.246786
 C         3.403290         0.228581         1.014992
 O         2.005692         0.354097         1.304354
 H        -0.241130        -0.940717         0.526919
 H        -0.693582         0.769353         0.100057
 H        -0.287595        -0.396395        -1.162868
 H         1.906285         1.176028        -1.865130
 H         1.676128         2.207939        -0.477524
 H         4.291168         1.812488        -0.571116
 H         3.920034        -0.725268        -1.935680
 H         5.295127        -0.497657        -0.928938
 H         3.496454        -2.178868         0.403162
 H         3.917894         0.375828         1.986189
