19
Iteration:  2835
 C        -0.103021         0.001049        -0.228347
 C         1.492409         0.036948         0.074809
 C         2.122632         1.048417        -0.851374
 C         3.627766         0.960034        -0.407913
 C         4.262924        -0.352574        -0.984835
 C         3.442220        -1.112266         0.128655
 O         1.982282        -1.202649        -0.196202
 C         3.330174         0.224194         0.999880
 O         1.988315         0.372119         1.355181
 H        -0.543684        -0.842653         0.235987
 H        -0.415191         0.896723         0.361778
 H        -0.255277         0.212778        -1.273339
 H         1.855817         0.929029        -1.890867
 H         1.930549         2.053796        -0.535444
 H         4.198976         1.910473        -0.531302
 H         3.983668        -0.664566        -1.967531
 H         5.413213        -0.445514        -0.785355
 H         3.759739        -2.012198         0.572574
 H         4.161290         0.404871         1.591758
