19
Iteration:  1302
 C        -0.056049        -0.034335        -0.135934
 C         1.383480         0.045383         0.024144
 C         2.170695         1.154785        -0.808157
 C         3.606944         0.957206        -0.426650
 C         4.180973        -0.378229        -0.960069
 C         3.381388        -1.130330         0.097403
 O         2.059843        -1.183497        -0.269099
 C         3.363286         0.138126         1.036354
 O         2.003130         0.426791         1.338484
 H        -0.306479        -0.970934         0.259683
 H        -0.539252         0.818488         0.421694
 H        -0.370289        -0.043508        -1.158965
 H         2.056208         0.967636        -1.971062
 H         1.765369         2.188465        -0.620711
 H         4.285868         1.800559        -0.507605
 H         4.153806        -0.465426        -2.052462
 H         5.311288        -0.512573        -0.764446
 H         3.867869        -2.100894         0.653809
 H         4.118915         0.222987         1.793992
