19
Iteration:  3236charge 0 multiplicity 1
 C        -0.062668        -0.121707        -0.097914
 C         1.446054         0.131795        -0.017158
 C         2.258438         1.238182        -0.792391
 C         3.684938         0.951560        -0.333165
 C         4.148563        -0.365444        -1.014445
 C         3.412073        -1.177928         0.088897
 O         2.031248        -1.306296        -0.263051
 C         3.301434         0.222830         1.062735
 O         1.942048         0.452689         1.275421
 H        -0.168922        -1.130324         0.318086
 H        -0.504385         0.668424         0.445467
 H        -0.513973         0.097845        -1.027300
 H         2.045640         1.155463        -1.904351
 H         1.856790         2.251662        -0.628546
 H         4.480127         1.739278        -0.508706
 H         3.776124        -0.525949        -2.109568
 H         5.231463        -0.506517        -0.979823
 H         3.695236        -2.190377         0.592483
 H         3.984583         0.373891         1.933408
