19
Iteration:  2320charge 0 multiplicity 1
 C        -0.084898         0.007381        -0.041047
 C         1.374426         0.105989         0.012599
 C         2.155486         1.111732        -0.896006
 C         3.667440         0.985858        -0.333204
 C         4.272195        -0.298880        -0.967078
 C         3.346559        -1.101559         0.055988
 O         2.028462        -1.314538        -0.228226
 C         3.416091         0.165777         0.942930
 O         1.958093         0.385271         1.293311
 H        -0.254645        -0.621465         0.900039
 H        -0.631970         0.976462        -0.008793
 H        -0.366443        -0.439596        -1.043735
 H         2.140308         0.715526        -1.902672
 H         1.822091         2.193265        -0.734681
 H         4.153631         1.915716        -0.303222
 H         4.312137        -0.364919        -2.093050
 H         5.244695        -0.500554        -0.599090
 H         3.783721        -2.072594         0.574715
 H         3.963585         0.176526         1.963120
