19
Iteration:  1933
 C        -0.098537        -0.074648         0.107499
 C         1.468791         0.047326        -0.089549
 C         2.152679         1.150708        -0.912184
 C         3.654935         0.892888        -0.395794
 C         4.269950        -0.429899        -0.868832
 C         3.370927        -1.101886         0.140694
 O         2.075652        -1.189181        -0.421962
 C         3.302493         0.306608         1.001101
 O         1.960513         0.420937         1.271160
 H        -0.135986        -0.642616         1.063603
 H        -0.434397         0.903534         0.284307
 H        -0.584900        -0.752452        -0.589652
 H         2.068564         0.917866        -2.001093
 H         1.697262         2.088383        -0.740696
 H         4.134931         1.880941        -0.410111
 H         4.244966        -0.733051        -1.874740
 H         5.347171        -0.443146        -0.499868
 H         3.417516        -2.050789         0.576333
 H         3.935071         0.460617         1.883866
