19
Iteration:   101
 C        -0.114808         0.054008        -0.182869
 C         1.409393         0.039669         0.049949
 C         2.102494         1.048754        -0.904498
 C         3.581016         0.914979        -0.416670
 C         4.228299        -0.330008        -1.051510
 C         3.470439        -1.102919         0.166019
 O         2.070680        -1.348657        -0.140191
 C         3.346651         0.237425         0.981761
 O         2.066222         0.497670         1.413695
 H        -0.771525        -0.746999         0.297219
 H        -0.524307         0.988215        -0.025441
 H        -0.173445        -0.117639        -1.296418
 H         1.977203         0.646609        -1.887717
 H         1.575886         2.012192        -0.907363
 H         4.082788         1.849665        -0.525913
 H         3.843268        -0.614385        -2.063885
 H         5.284107        -0.289923        -0.967922
 H         3.850272        -2.059370         0.572177
 H         4.111759         0.430549         1.822517
