19
Iteration:  2528charge 0 multiplicity 1
 C        -0.002115        -0.088554         0.001993
 C         1.436005         0.057275        -0.052818
 C         2.145083         1.221216        -0.866517
 C         3.642462         0.928451        -0.408952
 C         4.217043        -0.368903        -0.940571
 C         3.396304        -1.132900         0.175567
 O         2.002460        -1.224251        -0.277100
 C         3.327410         0.235271         0.986233
 O         2.005363         0.401493         1.238617
 H        -0.270286        -0.607431         1.004915
 H        -0.574093         0.897386        -0.047146
 H        -0.317700        -0.663077        -0.901852
 H         1.914948         1.172586        -1.906123
 H         1.696737         2.138801        -0.513889
 H         4.278859         1.792947        -0.600670
 H         4.082902        -0.713828        -1.979184
 H         5.265116        -0.477573        -0.651445
 H         3.718340        -2.095715         0.603862
 H         3.857227         0.326486         1.949248
