19
Iteration:  1057
 C        -0.021386        -0.020529        -0.107667
 C         1.467021         0.052655        -0.024805
 C         2.151603         1.124473        -0.893360
 C         3.639404         1.012279        -0.364880
 C         4.188576        -0.338494        -0.969500
 C         3.392684        -1.096665         0.188050
 O         1.998437        -1.282592        -0.248325
 C         3.340850         0.193260         0.992141
 O         2.001510         0.381780         1.326485
 H        -0.515768        -0.783796         0.335066
 H        -0.546988         0.857262         0.311675
 H        -0.234510        -0.121044        -1.176394
 H         2.114809         0.948228        -1.929165
 H         1.770590         2.176037        -0.677418
 H         4.335505         1.847805        -0.539381
 H         3.760193        -0.631458        -1.971924
 H         5.250897        -0.554134        -0.883411
 H         3.836259        -2.009802         0.673808
 H         4.047069         0.385307         1.856512
