19
Iteration:  1425
 C        -0.054634         0.009644         0.032137
 C         1.489976         0.076466        -0.035862
 C         2.199680         1.195395        -0.887505
 C         3.572183         0.956040        -0.335765
 C         4.233843        -0.368295        -0.953411
 C         3.433863        -1.116092         0.152314
 O         2.055844        -1.239829        -0.313374
 C         3.333547         0.123337         0.954307
 O         1.919783         0.388592         1.250518
 H        -0.356166        -0.677180         0.709553
 H        -0.646011         0.880765         0.288841
 H        -0.394633        -0.378068        -0.941028
 H         2.080273         0.849488        -1.897642
 H         1.881349         2.303857        -0.734639
 H         4.223997         1.863343        -0.333071
 H         3.797658        -0.663171        -1.932399
 H         5.255022        -0.568049        -0.747863
 H         3.944827        -1.953805         0.612136
 H         3.825503         0.271847         1.947955
