19
Iteration:  2264charge 0 multiplicity 1
 C        -0.031622        -0.039821        -0.071715
 C         1.372666         0.000867         0.032357
 C         2.193081         1.189023        -0.860645
 C         3.621071         0.941319        -0.423118
 C         4.268717        -0.410029        -0.949705
 C         3.404269        -1.097346         0.182430
 O         2.031504        -1.155209        -0.286454
 C         3.324025         0.224019         0.930445
 O         1.980182         0.358355         1.327223
 H        -0.478394        -0.959462         0.318106
 H        -0.467347         0.812198         0.547948
 H        -0.258113         0.008149        -1.205701
 H         1.928743         1.021616        -1.879228
 H         1.763398         2.157914        -0.617898
 H         4.183781         1.836498        -0.307236
 H         3.975061        -0.890009        -1.930761
 H         5.319268        -0.445063        -0.939856
 H         3.794663        -2.101789         0.607211
 H         3.948665         0.441550         1.761149
