19
Iteration:   598charge 0 multiplicity 1
 C        -0.146247        -0.060265         0.013680
 C         1.407011         0.080631         0.023167
 C         2.174145         1.152195        -0.899303
 C         3.636631         0.968158        -0.423884
 C         4.291300        -0.414714        -0.911881
 C         3.381793        -1.109974         0.111905
 O         2.093893        -1.186736        -0.322726
 C         3.356206         0.203003         0.985021
 O         1.962549         0.432038         1.286948
 H        -0.475506        -0.640445         1.011250
 H        -0.606359         0.896757         0.058096
 H        -0.460179        -0.544061        -0.945157
 H         1.970880         0.755825        -1.879544
 H         1.662764         2.123005        -0.778331
 H         4.243347         1.840770        -0.484853
 H         4.344054        -0.861039        -1.915316
 H         5.286109        -0.514673        -0.411910
 H         3.660254        -2.233806         0.266242
 H         3.986056         0.259028         1.949378
