19
Iteration:  3505
 C        -0.086439        -0.021329        -0.135127
 C         1.452366         0.043852         0.032944
 C         2.236684         1.153501        -0.975725
 C         3.608146         0.978145        -0.331485
 C         4.160835        -0.344400        -0.966893
 C         3.375142        -1.133350         0.087340
 O         2.015930        -1.288449        -0.224382
 C         3.312550         0.219621         1.025672
 O         2.023542         0.432413         1.363738
 H        -0.419142        -0.762327         0.710897
 H        -0.342374         1.068112         0.004020
 H        -0.144416        -0.571433        -1.114588
 H         2.161599         0.820717        -1.979134
 H         1.824699         2.046687        -0.662872
 H         4.208926         1.941467        -0.259738
 H         3.759003        -0.703239        -1.986587
 H         5.365429        -0.391129        -0.897672
 H         3.911408        -2.044983         0.324803
 H         4.050822         0.368435         1.880908
