19
Iteration:  2887
 C        -0.115143        -0.046945         0.086634
 C         1.492803         0.072437        -0.094330
 C         2.168057         1.147149        -0.894990
 C         3.647115         0.915513        -0.345286
 C         4.330204        -0.405739        -0.909825
 C         3.371504        -1.066071         0.120522
 O         2.035740        -1.237837        -0.377290
 C         3.282668         0.222337         1.035153
 O         1.932768         0.428103         1.236689
 H        -0.100745        -0.827573         0.838912
 H        -0.555022         0.960159         0.432341
 H        -0.728439        -0.387860        -0.783931
 H         2.096030         1.053361        -2.034168
 H         1.657925         2.184781        -0.500292
 H         4.379492         1.747751        -0.384997
 H         4.202819        -0.775924        -1.948269
 H         5.410179        -0.469148        -0.569670
 H         3.702557        -2.111940         0.505124
 H         4.032397         0.347232         1.796929
