19
Iteration:  1579
 C        -0.030800        -0.088590        -0.082131
 C         1.477357         0.108626        -0.047534
 C         2.175874         1.204315        -0.833402
 C         3.627107         0.974187        -0.406094
 C         4.176189        -0.467826        -0.994504
 C         3.384132        -1.140562         0.186315
 O         2.046374        -1.168388        -0.234942
 C         3.366207         0.164435         0.990991
 O         1.957611         0.410776         1.306590
 H        -0.509421        -0.686909         0.719591
 H        -0.608012         0.778512        -0.153615
 H        -0.403480        -0.632896        -0.923959
 H         2.050571         1.120765        -1.911469
 H         1.920905         2.296693        -0.515614
 H         4.247078         1.948614        -0.346465
 H         3.947429        -0.608782        -2.127926
 H         5.271972        -0.500125        -0.919841
 H         3.668219        -2.168276         0.459342
 H         3.962399         0.348013         1.898220
