19
Iteration:  1485
 C        -0.055647         0.035261        -0.087659
 C         1.424217         0.066715         0.003959
 C         2.187516         1.138294        -0.897558
 C         3.574826         0.915928        -0.425442
 C         4.246589        -0.326916        -0.965843
 C         3.411449        -1.194280         0.129769
 O         2.048872        -1.232724        -0.256507
 C         3.375492         0.240772         1.045601
 O         1.954493         0.370369         1.342568
 H        -0.521455        -0.964433         0.306440
 H        -0.430130         0.972590         0.427513
 H        -0.389481         0.087363        -1.129366
 H         1.918264         0.868234        -1.964809
 H         1.701078         2.050758        -0.711525
 H         4.067067         1.867198        -0.412596
 H         4.128893        -0.431894        -2.024491
 H         5.292809        -0.599875        -0.796269
 H         3.880418        -2.108488         0.518986
 H         4.048558         0.372666         1.864467
