19
Iteration:   967charge 0 multiplicity 1
 C        -0.094582        -0.143986         0.066701
 C         1.376073         0.125073        -0.060513
 C         2.210177         1.161122        -0.906598
 C         3.685994         0.957051        -0.405327
 C         4.314245        -0.429520        -0.862675
 C         3.367060        -1.114170         0.140903
 O         2.016886        -1.222274        -0.380114
 C         3.321207         0.186066         0.968512
 O         1.947696         0.494543         1.290138
 H        -0.267624        -0.766264         0.955033
 H        -0.599938         0.822558         0.270287
 H        -0.359453        -0.666763        -0.812215
 H         2.165061         0.844166        -1.936749
 H         1.824229         2.206994        -0.737186
 H         4.269051         1.975180        -0.410568
 H         4.200432        -0.841441        -1.904945
 H         5.378393        -0.485093        -0.540613
 H         3.560766        -2.064467         0.616786
 H         3.953253         0.550717         1.726327
