19
Iteration:  1803charge 0 multiplicity 1
 C        -0.068230        -0.117766         0.079719
 C         1.407365         0.137810        -0.010106
 C         2.215360         1.077598        -0.956893
 C         3.652733         0.890017        -0.482007
 C         4.352011        -0.397256        -0.856371
 C         3.358215        -1.097003         0.100812
 O         1.995893        -1.126998        -0.318404
 C         3.281954         0.180767         1.003415
 O         1.954171         0.423450         1.279244
 H        -0.062356        -0.616853         1.035668
 H        -0.626261         0.780066         0.301816
 H        -0.527374        -0.583590        -0.793170
 H         2.084698         0.821328        -2.140321
 H         1.799329         2.148732        -0.778815
 H         4.202861         1.758344        -0.434495
 H         4.413714        -0.537859        -1.918856
 H         5.346429        -0.181747        -0.305963
 H         3.484429        -2.108344         0.419946
 H         4.009969         0.515619         1.777665
