19
Iteration:  2712charge 0 multiplicity 1
 C        -0.060886         0.064541        -0.115681
 C         1.478024         0.024832        -0.003480
 C         2.182420         1.097244        -0.870418
 C         3.572209         0.949159        -0.358305
 C         4.123891        -0.419616        -0.971467
 C         3.465971        -1.105226         0.125274
 O         2.075830        -1.237610        -0.239049
 C         3.389536         0.262960         1.019353
 O         1.947889         0.352836         1.301750
 H        -0.510817        -0.386026         0.744216
 H        -0.262950         1.124811        -0.007290
 H        -0.162947        -0.437668        -1.048444
 H         2.011227         0.905294        -1.975046
 H         1.508638         1.975750        -0.645913
 H         4.129890         1.848067        -0.559126
 H         3.906927        -0.532830        -2.094386
 H         5.239854        -0.438898        -0.895261
 H         3.800245        -2.034586         0.684886
 H         3.871066         0.468474         1.978016
