19
Iteration:   971charge 0 multiplicity 1
 C        -0.095814        -0.127538         0.097089
 C         1.413738         0.140903        -0.030123
 C         2.213353         1.166019        -0.916889
 C         3.684668         0.968363        -0.421744
 C         4.327657        -0.406105        -0.877837
 C         3.396299        -1.099274         0.142884
 O         2.018087        -1.232921        -0.372918
 C         3.301926         0.154089         0.973700
 O         1.916543         0.486262         1.264361
 H        -0.161035        -0.790689         0.922773
 H        -0.718506         0.813907         0.195013
 H        -0.431749        -0.706548        -0.797693
 H         2.139582         0.889324        -1.965931
 H         1.883822         2.257777        -0.808265
 H         4.269018         1.833442        -0.453260
 H         4.209503        -0.936869        -1.845731
 H         5.364042        -0.471526        -0.594699
 H         3.438633        -2.115410         0.632532
 H         3.871636         0.449370         1.925595
