19
Iteration:  4901charge 0 multiplicity 1
 C        -0.040251        -0.046347        -0.122971
 C         1.466794         0.019590        -0.031050
 C         2.138965         1.175982        -0.848476
 C         3.570861         1.005407        -0.385231
 C         4.256096        -0.359760        -0.882410
 C         3.381494        -1.137866         0.117489
 O         1.979426        -1.214087        -0.262572
 C         3.353030         0.198655         0.945241
 O         2.032751         0.359503         1.340188
 H        -0.592762        -0.659330         0.583106
 H        -0.544381         0.835438         0.226667
 H        -0.379514        -0.149395        -1.200858
 H         2.182197         1.015973        -1.899746
 H         1.842599         2.207741        -0.515033
 H         4.316422         1.773858        -0.384015
 H         3.924619        -0.541785        -1.943838
 H         5.435282        -0.413539        -0.808577
 H         3.709142        -2.083954         0.550425
 H         4.108808         0.245420         1.726228
