19
Iteration:  4850charge 0 multiplicity 1
 C        -0.067605        -0.003427        -0.023312
 C         1.479182         0.059647        -0.084073
 C         2.179381         1.142449        -0.890436
 C         3.593165         0.990171        -0.316395
 C         4.209123        -0.360130        -0.914992
 C         3.384686        -1.136836         0.117301
 O         2.010118        -1.226056        -0.313428
 C         3.375728         0.188575         0.997495
 O         1.993435         0.361972         1.320455
 H        -0.350095        -0.740217         0.721623
 H        -0.710689         0.882304         0.049063
 H        -0.377491        -0.294281        -1.076028
 H         2.032115         0.929397        -1.976874
 H         1.751795         2.094790        -0.639895
 H         4.285088         1.832958        -0.365056
 H         4.083164        -0.426105        -2.059908
 H         5.206127        -0.379165        -0.583705
 H         3.720664        -2.095072         0.534091
 H         4.180839         0.281249         1.743369
