19
Iteration:  2689charge 0 multiplicity 1
 C        -0.040846         0.032586        -0.119091
 C         1.473202         0.032802        -0.012168
 C         2.226486         1.119937        -0.940457
 C         3.635449         0.984560        -0.357075
 C         4.207791        -0.266873        -0.978781
 C         3.435436        -1.119434         0.127766
 O         1.982328        -1.339445        -0.125872
 C         3.309323         0.182315         0.934019
 O         1.976474         0.428847         1.338505
 H        -0.472516        -0.750982         0.492846
 H        -0.414687         0.940105         0.207304
 H        -0.119258        -0.239463        -1.131036
 H         1.877639         0.817440        -1.925678
 H         1.610966         2.038540        -0.702699
 H         4.204465         1.850257        -0.435513
 H         3.728663        -0.530797        -2.011801
 H         5.253532        -0.504444        -1.018441
 H         3.841617        -2.124112         0.515771
 H         3.911076         0.309489         1.849375
