19
Iteration:  4886
 C        -0.092409        -0.019910        -0.108895
 C         1.446149         0.109693        -0.035214
 C         2.221285         1.158955        -0.846216
 C         3.671297         0.903378        -0.340519
 C         4.136778        -0.376920        -1.023151
 C         3.425361        -1.074452         0.135746
 O         2.054667        -1.242371        -0.274047
 C         3.357890         0.202498         1.030519
 O         1.956200         0.358570         1.338879
 H        -0.312948        -1.013632         0.464556
 H        -0.568191         1.024568         0.154637
 H        -0.351910        -0.445385        -1.054256
 H         1.913818         1.166641        -1.975565
 H         1.769032         2.114660        -0.480457
 H         4.129710         1.980599        -0.403794
 H         4.051543        -0.631621        -2.038342
 H         5.187107        -0.459301        -0.740718
 H         3.742089        -2.082753         0.475685
 H         3.993937         0.473452         1.901059
