19
Iteration:    99charge 0 multiplicity 1
 C        -0.106484         0.066605        -0.192255
 C         1.427931         0.026669         0.030298
 C         2.102809         1.029210        -0.924378
 C         3.565366         0.932005        -0.408828
 C         4.216730        -0.334378        -1.056484
 C         3.462676        -1.121857         0.174918
 O         2.065415        -1.317519        -0.128572
 C         3.349058         0.246607         0.974235
 O         2.071402         0.469148         1.427548
 H        -0.739309        -0.721337         0.333948
 H        -0.504088         0.990310        -0.014823
 H        -0.223386        -0.156727        -1.299581
 H         2.000873         0.624658        -1.916369
 H         1.602860         2.005456        -0.846307
 H         4.100897         1.844939        -0.471752
 H         3.830788        -0.591058        -2.029226
 H         5.261458        -0.260553        -0.938996
 H         3.879695        -1.957463         0.572866
 H         4.111857         0.482287         1.755539
