19
Iteration:  2724
 C        -0.048917         0.050409        -0.056216
 C         1.446904         0.046670         0.035532
 C         2.119196         1.107458        -0.855975
 C         3.658897         0.968622        -0.447123
 C         4.246110        -0.358095        -0.927325
 C         3.420856        -1.105419         0.208610
 O         2.048413        -1.276146        -0.333535
 C         3.304439         0.251685         0.965498
 O         1.976085         0.359715         1.327360
 H        -0.583194        -0.511585         0.685846
 H        -0.570269         1.019459        -0.300592
 H        -0.451010        -0.457645        -0.942074
 H         1.942353         0.876124        -1.930400
 H         1.886028         2.153013        -0.549249
 H         4.339368         1.861521        -0.461550
 H         3.816588        -0.817389        -1.848965
 H         5.370612        -0.529722        -0.841736
 H         3.781827        -2.093066         0.553280
 H         4.030318         0.452284         1.745870
