19
Iteration:  4978charge 0 multiplicity 1
 C        -0.054052        -0.039161         0.003392
 C         1.446118         0.071396        -0.077090
 C         2.210651         1.109195        -0.864000
 C         3.625923         0.936801        -0.397767
 C         4.245986        -0.306873        -0.901226
 C         3.413301        -1.226767         0.108263
 O         2.011922        -1.187761        -0.341468
 C         3.314078         0.221506         0.954677
 O         1.929123         0.403737         1.354410
 H        -0.420136        -0.777775         0.660540
 H        -0.349242         0.919467         0.354069
 H        -0.667277        -0.270395        -0.923322
 H         2.188125         1.128240        -1.925801
 H         1.969365         2.131659        -0.500373
 H         4.246258         1.768409        -0.293851
 H         4.264615        -0.603649        -1.958045
 H         5.312661        -0.410155        -0.553766
 H         3.733531        -2.245287         0.330885
 H         3.959740         0.537157         1.769552
