19
Iteration:  4923charge 0 multiplicity 1
 C        -0.034683         0.053272        -0.043093
 C         1.419422         0.140001         0.071706
 C         2.124410         1.045511        -0.884036
 C         3.612443         0.945702        -0.392776
 C         4.285165        -0.314593        -0.962553
 C         3.377868        -1.105101         0.070865
 O         2.047612        -1.281852        -0.345506
 C         3.339594         0.187103         1.009406
 O         1.957072         0.366027         1.326786
 H        -0.393321        -0.719948         0.613411
 H        -0.596042         0.883873         0.322275
 H        -0.263268        -0.070765        -1.159073
 H         2.050498         0.811252        -1.915305
 H         1.819348         2.097568        -0.621033
 H         4.174370         1.837929        -0.251945
 H         4.345343        -0.651815        -2.025728
 H         5.286082        -0.496144        -0.415496
 H         3.863392        -1.994983         0.463266
 H         3.867994         0.358843         1.936485
