19
Iteration:  2098
 C        -0.081818         0.123504         0.073155
 C         1.469645         0.027888        -0.005143
 C         2.127791         1.073613        -0.898606
 C         3.630346         1.005593        -0.414753
 C         4.307655        -0.368746        -0.853390
 C         3.412619        -1.135673         0.106418
 O         2.039249        -1.318322        -0.367915
 C         3.288993         0.246356         0.950610
 O         1.942435         0.328460         1.272097
 H        -0.628716        -0.642851         0.758457
 H        -0.369721         1.146563         0.403701
 H        -0.464211        -0.155780        -0.926325
 H         1.960365         0.866282        -1.976744
 H         1.900807         2.098405        -0.741552
 H         4.118911         2.013065        -0.374695
 H         4.407201        -0.672960        -1.898623
 H         5.367151        -0.360075        -0.529829
 H         3.928552        -1.976018         0.639751
 H         3.929583         0.668455         1.758710
