19
Iteration:  3127charge 0 multiplicity 1
 C        -0.033825        -0.070842        -0.128012
 C         1.475002         0.103685        -0.028291
 C         2.216551         1.196654        -0.784203
 C         3.658728         0.911872        -0.361736
 C         4.178994        -0.353782        -0.998554
 C         3.387295        -1.097408         0.169681
 O         2.005655        -1.192010        -0.298305
 C         3.329908         0.207797         1.006186
 O         1.935894         0.338063         1.314785
 H        -0.294639        -0.656335         0.830547
 H        -0.573088         0.938835        -0.053720
 H        -0.401764        -0.648654        -1.001159
 H         2.178207         1.083499        -1.890246
 H         1.854104         2.162859        -0.490031
 H         4.510998         1.673040        -0.315567
 H         3.749800        -0.387746        -2.120116
 H         5.282823        -0.596118        -1.001553
 H         3.680698        -2.169133         0.597365
 H         4.115625         0.315839         1.766431
