19
Iteration:  1066charge 0 multiplicity 1
 C        -0.074156        -0.042983        -0.085154
 C         1.483501         0.039002         0.047018
 C         2.233592         1.116565        -0.898205
 C         3.613325         0.922165        -0.387976
 C         4.153093        -0.328744        -0.922947
 C         3.305786        -1.097663         0.189312
 O         2.065138        -1.261150        -0.316239
 C         3.371521         0.254873         1.023730
 O         1.997629         0.422418         1.250114
 H        -0.230045        -0.971544         0.405274
 H        -0.566601         0.898999         0.401901
 H        -0.394378        -0.090115        -1.123750
 H         2.079974         1.017622        -1.899224
 H         1.735309         2.054112        -0.488998
 H         4.245931         1.940975        -0.307120
 H         3.765047        -0.668494        -1.937691
 H         5.205997        -0.600619        -0.920962
 H         3.796819        -1.978546         0.528492
 H         4.041885         0.286392         1.894391
