19
Iteration:  4249
 C        -0.090195         0.019629         0.041726
 C         1.472572         0.014425        -0.028637
 C         2.193200         1.190245        -0.967107
 C         3.618916         0.972642        -0.275477
 C         4.283182        -0.353356        -0.953509
 C         3.394877        -1.118954         0.071591
 O         2.004280        -1.290896        -0.261680
 C         3.356067         0.194041         1.022846
 O         1.927250         0.381206         1.224652
 H        -0.454850        -0.632410         0.944139
 H        -0.424125         1.103456         0.191758
 H        -0.468035        -0.318617        -0.922975
 H         2.039311         0.913973        -2.003660
 H         1.587565         2.061586        -0.853962
 H         4.167609         1.993201        -0.138741
 H         4.350882        -0.525768        -2.001369
 H         5.411212        -0.415853        -0.762016
 H         3.726461        -2.121161         0.438616
 H         4.135531         0.295902         1.846212
