19
Iteration:   293
 C        -0.156923         0.027778         0.077800
 C         1.409811        -0.004079         0.002121
 C         2.148871         0.991678        -0.961658
 C         3.606569         0.948571        -0.326087
 C         4.316085        -0.339888        -0.886998
 C         3.445443        -1.104801         0.124192
 O         2.011113        -1.207241        -0.409737
 C         3.355463         0.242368         0.990389
 O         2.035098         0.445920         1.291127
 H        -0.550025        -0.767980         0.847737
 H        -0.580714         0.903900         0.348289
 H        -0.665444        -0.151721        -0.915588
 H         2.185360         0.743235        -2.029217
 H         1.646493         1.954952        -0.973851
 H         4.185991         1.812370        -0.394180
 H         4.247547        -0.731692        -1.900987
 H         5.389941        -0.265114        -0.606379
 H         3.605123        -2.153984         0.546704
 H         4.017817         0.526573         1.819640
