19
Iteration:   493
 C        -0.080676        -0.085726        -0.045453
 C         1.394694         0.101673         0.003607
 C         2.197119         1.193981        -0.859425
 C         3.625717         0.911978        -0.425641
 C         4.212162        -0.370331        -1.011448
 C         3.454697        -1.208953         0.202885
 O         2.075497        -1.185315        -0.281590
 C         3.338485         0.189929         0.983385
 O         1.963077         0.443600         1.299451
 H        -0.293259        -0.981140         0.428186
 H        -0.762924         0.739205         0.524197
 H        -0.304293        -0.279054        -1.060102
 H         1.941755         1.186760        -1.924534
 H         1.851983         2.185128        -0.455318
 H         4.351855         1.777740        -0.496191
 H         3.799056        -0.674318        -2.004167
 H         5.278901        -0.480118        -1.035044
 H         3.720851        -2.112895         0.710333
 H         3.818253         0.544519         1.936347
