19
Iteration:  1088
 C        -0.050859        -0.118104         0.045021
 C         1.445093         0.090483        -0.066458
 C         2.168701         1.202549        -0.920670
 C         3.643623         0.920628        -0.372565
 C         4.349036        -0.391856        -0.949748
 C         3.385246        -1.148226         0.167923
 O         2.003467        -1.168082        -0.325261
 C         3.266066         0.181987         1.008302
 O         1.922576         0.446178         1.289887
 H        -0.227190        -1.064037         0.498074
 H        -0.493830         0.788519         0.653377
 H        -0.559752        -0.083882        -0.938672
 H         2.162788         0.979933        -1.914258
 H         1.769104         2.254173        -0.699767
 H         4.454766         1.770710        -0.558936
 H         4.130908        -0.863494        -1.957580
 H         5.389378        -0.655958        -0.788811
 H         3.813305        -2.006995         0.582210
 H         3.977896         0.413874         1.831689
