19
Iteration:   943charge 0 multiplicity 1
 C        -0.042152        -0.016100        -0.099125
 C         1.454033         0.067921         0.005366
 C         2.129650         1.083270        -0.912442
 C         3.601933         0.958229        -0.468886
 C         4.233191        -0.350682        -0.891219
 C         3.395331        -1.106715         0.142347
 O         2.009291        -1.228491        -0.266281
 C         3.361324         0.208031         1.027440
 O         2.013222         0.428725         1.326694
 H        -0.396068        -0.884642         0.612002
 H        -0.516982         0.857524         0.228570
 H        -0.212978        -0.363170        -1.128554
 H         1.939997         0.827654        -2.012037
 H         1.808752         2.039103        -0.615762
 H         4.207833         1.913295        -0.681794
 H         4.150197        -0.827479        -1.856469
 H         5.312298        -0.343625        -0.534861
 H         3.503035        -2.086134         0.560577
 H         3.966979         0.367261         1.905978
