19
Iteration:  1078charge 0 multiplicity 1
 C        -0.052027        -0.101350         0.006061
 C         1.432141         0.097832        -0.065762
 C         2.212657         1.110719        -0.846861
 C         3.662831         0.928448        -0.351658
 C         4.188997        -0.454422        -0.923632
 C         3.443428        -1.138856         0.136596
 O         2.047604        -1.203473        -0.346658
 C         3.322953         0.254112         0.979520
 O         1.925917         0.480709         1.273007
 H        -0.297225        -0.982013         0.484613
 H        -0.540961         0.696230         0.645843
 H        -0.505297        -0.131482        -0.996133
 H         2.131141         1.014639        -1.872948
 H         1.897469         2.171928        -0.578137
 H         4.278958         1.914403        -0.359437
 H         3.927593        -0.598357        -2.006341
 H         5.245854        -0.384809        -0.745675
 H         3.581229        -2.120968         0.547807
 H         3.896434         0.455224         1.927699
