19
Iteration:  4317charge 0 multiplicity 1
 C         0.012585        -0.038737        -0.095563
 C         1.410213         0.142380         0.030467
 C         2.183439         1.110475        -0.864108
 C         3.621306         0.902343        -0.389627
 C         4.251066        -0.283914        -1.029665
 C         3.379413        -1.149498         0.119497
 O         1.973790        -1.255469        -0.240827
 C         3.405293         0.185302         1.032610
 O         1.947293         0.415448         1.297782
 H        -0.383942        -0.740027         0.630391
 H        -0.698460         0.719356         0.175090
 H        -0.309875        -0.375290        -1.121623
 H         2.041370         1.057206        -1.948871
 H         1.911551         2.052518        -0.600227
 H         4.244057         1.855953        -0.342939
 H         4.196318        -0.583877        -2.087644
 H         5.323588        -0.417194        -0.688496
 H         3.631404        -2.157930         0.565042
 H         3.867920         0.437349         1.950300
