19
Iteration:  1227charge 0 multiplicity 1
 C        -0.025436        -0.056039         0.022334
 C         1.427544         0.092735        -0.030777
 C         2.246110         1.099888        -0.904406
 C         3.664372         0.969184        -0.373176
 C         4.243480        -0.319487        -0.900284
 C         3.345522        -1.099238         0.149706
 O         1.988555        -1.208469        -0.368118
 C         3.303083         0.212328         0.952110
 O         1.974334         0.337847         1.303594
 H        -0.289609        -0.692262         0.831352
 H        -0.407608         1.034769         0.251401
 H        -0.590481        -0.313383        -0.885192
 H         1.886148         0.835311        -1.941780
 H         1.892157         2.163352        -0.675800
 H         4.153995         1.951169        -0.460973
 H         4.255026        -0.811487        -1.882001
 H         5.310478        -0.392464        -0.561197
 H         3.598455        -2.036410         0.715334
 H         4.050503         0.225576         1.734805
