19
Iteration:  1832
 C        -0.089664        -0.071174        -0.000999
 C         1.450853         0.076012         0.046556
 C         2.106367         1.111639        -0.894928
 C         3.657728         0.957030        -0.484670
 C         4.272572        -0.412627        -0.877012
 C         3.377963        -1.110794         0.216444
 O         2.041540        -1.239004        -0.363172
 C         3.310426         0.230300         1.010116
 O         2.003461         0.431579         1.250538
 H        -0.473137        -0.835310         0.637877
 H        -0.422336         0.905620         0.510705
 H        -0.385490        -0.124827        -1.091206
 H         2.100647         0.898817        -1.939066
 H         1.713510         2.101215        -0.805819
 H         4.437282         1.850562        -0.551466
 H         4.092293        -0.565963        -1.959222
 H         5.318325        -0.231865        -0.593451
 H         3.546186        -2.092832         0.711828
 H         4.039629         0.473423         1.777825
