19
Iteration:   418charge 0 multiplicity 1
 C        -0.123023         0.052056         0.061550
 C         1.400429         0.034928        -0.013760
 C         2.145267         1.056949        -0.885480
 C         3.636680         0.906982        -0.414606
 C         4.316395        -0.335601        -0.921251
 C         3.477389        -1.167759         0.064956
 O         2.092224        -1.249203        -0.350968
 C         3.348094         0.232121         1.022023
 O         1.896824         0.412763         1.299912
 H        -0.568175        -0.377883         0.892408
 H        -0.364409         1.213467        -0.022415
 H        -0.637888        -0.415793        -0.747100
 H         1.957183         0.905219        -1.964266
 H         1.672364         1.987716        -0.506640
 H         4.228335         1.882442        -0.262615
 H         4.137697        -0.366794        -2.000949
 H         5.364225        -0.214553        -0.698823
 H         3.760805        -2.123799         0.317668
 H         3.934758         0.357860         1.929623
