19
Iteration:   514charge 0 multiplicity 1
 C         0.036231        -0.108315        -0.092475
 C         1.473154         0.060697         0.002817
 C         2.155637         1.141000        -0.858142
 C         3.619247         0.989160        -0.387565
 C         4.163857        -0.418329        -0.962815
 C         3.335133        -1.055608         0.150873
 O         1.957718        -1.204635        -0.284232
 C         3.383679         0.325551         0.958798
 O         2.013835         0.358262         1.359353
 H        -0.264515        -1.059580         0.177229
 H        -0.482661         0.813900         0.448030
 H        -0.242721        -0.044733        -1.107251
 H         1.898912         0.784500        -1.838093
 H         1.750092         2.167784        -0.663797
 H         4.326652         1.791132        -0.599509
 H         4.039158        -0.879453        -1.986501
 H         5.176441        -0.580722        -0.598180
 H         3.841387        -1.972129         0.511779
 H         4.128499         0.144059         1.805054
