19
Iteration:  4958
 C        -0.019380         0.039309         0.085745
 C         1.498785         0.088669        -0.014640
 C         2.134719         1.118860        -0.928668
 C         3.654602         1.034629        -0.331376
 C         4.281802        -0.366780        -0.888913
 C         3.355108        -1.057255         0.119827
 O         2.011467        -1.306750        -0.383501
 C         3.288587         0.153963         1.033324
 O         1.950132         0.357000         1.205402
 H        -0.285118        -0.825870         0.626082
 H        -0.412900         0.951765         0.427529
 H        -0.593582        -0.222364        -0.822111
 H         2.138598         0.933956        -1.987656
 H         1.718160         2.096650        -0.812699
 H         4.299396         1.865305        -0.255778
 H         4.164005        -0.568891        -2.063830
 H         5.367005        -0.523694        -0.631980
 H         3.688418        -1.965982         0.608582
 H         3.920139         0.144424         1.936513
