19
Iteration:   483
 C        -0.081745        -0.094783         0.003410
 C         1.459374         0.108629        -0.015664
 C         2.136113         1.176460        -0.832032
 C         3.635740         0.885704        -0.367959
 C         4.279099        -0.396125        -1.046354
 C         3.467684        -1.099018         0.205849
 O         2.044217        -1.192651        -0.248174
 C         3.311343         0.140479         0.964673
 O         1.922187         0.456414         1.222706
 H        -0.310419        -0.924034         0.579423
 H        -0.589088         0.973586         0.285569
 H        -0.475002        -0.197551        -0.992735
 H         1.979076         1.066693        -1.925592
 H         1.852898         2.187902        -0.442634
 H         4.291002         1.845478        -0.325866
 H         3.886286        -0.746886        -2.022194
 H         5.344131        -0.321879        -1.028356
 H         3.785245        -1.991743         0.614366
 H         4.004206         0.060817         1.806698
