19
Iteration:  2876charge 0 multiplicity 1
 C        -0.008055        -0.106197         0.053371
 C         1.454483         0.038701        -0.168619
 C         2.216971         1.126207        -0.914373
 C         3.643382         0.954816        -0.346639
 C         4.266560        -0.373824        -0.908303
 C         3.345315        -1.148413         0.172341
 O         2.001180        -1.174036        -0.313511
 C         3.320955         0.205807         0.970918
 O         1.958817         0.450890         1.287459
 H        -0.301615        -0.886366         0.756632
 H        -0.453912         0.826801         0.554211
 H        -0.471252        -0.273371        -0.940400
 H         2.222392         1.132367        -2.062317
 H         1.748162         2.186039        -0.538191
 H         4.133343         1.954470        -0.303848
 H         3.920108        -0.453397        -1.957072
 H         5.384083        -0.524768        -0.857659
 H         3.556666        -2.209632         0.594260
 H         3.750722         0.281398         1.946596
