19
Iteration:  4491charge 0 multiplicity 1
 C        -0.069774        -0.004956        -0.147874
 C         1.456529         0.039584         0.019430
 C         2.123045         1.089650        -0.830071
 C         3.693737         0.969144        -0.382236
 C         4.217643        -0.352013        -0.966049
 C         3.362071        -1.125261         0.093356
 O         1.990667        -1.229301        -0.260401
 C         3.370169         0.261806         0.985264
 O         2.009581         0.369786         1.383038
 H        -0.466388        -0.743023         0.544684
 H        -0.609788         0.958214        -0.057887
 H        -0.435025        -0.385611        -1.160298
 H         2.045625         0.879385        -1.969224
 H         1.845745         2.146936        -0.659448
 H         4.345536         1.884686        -0.417791
 H         4.056955        -0.502507        -2.013079
 H         5.346173        -0.502355        -0.809872
 H         3.784214        -2.102382         0.532132
 H         3.963783         0.409732         1.878034
