19
Iteration:   507
 C        -0.030224        -0.128252        -0.091706
 C         1.502709         0.104299         0.026206
 C         2.173993         1.191124        -0.865479
 C         3.619916         0.947216        -0.433628
 C         4.124364        -0.462703        -0.921782
 C         3.349788        -1.101871         0.118884
 O         2.022055        -1.235426        -0.315122
 C         3.378232         0.356084         1.019946
 O         2.004104         0.368900         1.376508
 H        -0.260874        -1.144267         0.288988
 H        -0.558388         0.778421         0.368876
 H        -0.453880        -0.046390        -1.145301
 H         2.073711         0.957018        -1.977424
 H         1.861237         2.200309        -0.581933
 H         4.296870         1.888077        -0.515391
 H         3.846178        -0.756730        -1.926743
 H         5.206093        -0.523639        -0.746596
 H         3.729406        -2.057297         0.385030
 H         4.137974         0.525888         1.729314
