19
Iteration:  3394charge 0 multiplicity 1
 C        -0.017058         0.070683        -0.122169
 C         1.376742         0.034245        -0.049606
 C         2.098582         1.129153        -0.846663
 C         3.625437         0.964201        -0.366040
 C         4.132224        -0.372369        -0.946303
 C         3.501163        -1.098000         0.165672
 O         2.057002        -1.323252        -0.209935
 C         3.385813         0.206694         0.992041
 O         1.986496         0.395451         1.267862
 H        -0.415785        -0.780358         0.429104
 H        -0.568914         0.998664         0.272082
 H        -0.117186        -0.103973        -1.238159
 H         2.013141         1.226843        -1.887956
 H         1.723804         2.047069        -0.511114
 H         4.234162         1.878459        -0.352440
 H         3.884398        -0.410483        -1.992653
 H         5.292521        -0.621554        -1.021378
 H         3.788885        -2.003910         0.654610
 H         3.957244         0.221151         1.885594
