19
Iteration:  4967charge 0 multiplicity 1
 C        -0.005963         0.021446         0.074710
 C         1.445993         0.071006        -0.066512
 C         2.214617         1.156757        -0.884599
 C         3.613682         0.939950        -0.322093
 C         4.256612        -0.364143        -0.861024
 C         3.348588        -1.108701         0.053589
 O         2.034422        -1.304318        -0.372219
 C         3.297203         0.226923         0.990951
 O         1.939577         0.386753         1.252145
 H        -0.100890        -0.760239         0.787240
 H        -0.412567         0.903584         0.480920
 H        -0.330931        -0.150797        -0.997615
 H         2.071608         0.900441        -1.898776
 H         1.719445         2.129128        -0.647368
 H         4.069148         1.861426        -0.475990
 H         4.113011        -0.518039        -1.952399
 H         5.337912        -0.384993        -0.530057
 H         3.697331        -2.011612         0.541320
 H         3.923123         0.217683         1.872070
