19
Iteration:  4056
 C        -0.045102        -0.114627        -0.106586
 C         1.478813         0.159379         0.048719
 C         2.190215         1.125236        -0.855343
 C         3.693666         1.025796        -0.378073
 C         4.244155        -0.320019        -0.977592
 C         3.343511        -1.096686         0.092926
 O         1.937236        -1.250470        -0.273949
 C         3.361985         0.149368         0.954150
 O         1.959729         0.393006         1.397992
 H        -0.399680        -0.897323         0.661286
 H        -0.701459         0.757008         0.098827
 H        -0.135370        -0.470910        -1.136950
 H         2.001092         0.862394        -1.965093
 H         1.989823         2.299532        -0.616830
 H         4.438976         1.806714        -0.514058
 H         3.935166        -0.525385        -2.053713
 H         5.272974        -0.573222        -0.931261
 H         3.790510        -2.109557         0.369307
 H         3.967917         0.259566         1.857391
