19
Iteration:  2521
 C        -0.073974        -0.105769         0.024796
 C         1.479748         0.045919        -0.046297
 C         2.137804         1.155372        -0.892231
 C         3.675473         0.962164        -0.413347
 C         4.210844        -0.394986        -0.899625
 C         3.384809        -1.124582         0.118097
 O         1.981624        -1.223719        -0.309486
 C         3.293811         0.224091         0.997522
 O         1.989427         0.439746         1.279254
 H        -0.132054        -0.603144         0.940108
 H        -0.352198         0.955554         0.149480
 H        -0.221089        -0.763498        -0.816120
 H         2.084299         1.138408        -2.055801
 H         1.952696         2.270359        -0.685219
 H         4.243561         1.981527        -0.287879
 H         4.128301        -0.696179        -1.911017
 H         5.314094        -0.328791        -0.688160
 H         3.779941        -2.027493         0.529700
 H         4.077827         0.296421         1.723365
