19
Iteration:  1924
 C        -0.105971        -0.050454         0.074545
 C         1.396661         0.103147        -0.053313
 C         2.214785         1.151995        -0.928292
 C         3.553009         0.918356        -0.421260
 C         4.304166        -0.397109        -0.873997
 C         3.379769        -1.133380         0.166837
 O         2.094821        -1.182912        -0.383704
 C         3.320844         0.258956         0.988430
 O         1.979085         0.395504         1.274386
 H        -0.172106        -0.762410         0.955885
 H        -0.753406         0.737900         0.268216
 H        -0.448452        -0.577604        -0.772931
 H         1.866138         0.835558        -1.964189
 H         1.848131         2.187926        -0.650127
 H         4.252719         1.581466        -0.625824
 H         4.068425        -0.790056        -1.836809
 H         5.377979        -0.400508        -0.480227
 H         3.757639        -2.039367         0.632093
 H         3.984868         0.440693         1.864700
