19
Iteration:  1372charge 0 multiplicity 1
 C        -0.134159         0.093775         0.047748
 C         1.466357         0.096112         0.012367
 C         2.107244         1.090731        -0.915746
 C         3.606734         0.939160        -0.362860
 C         4.396210        -0.267507        -0.889039
 C         3.349848        -1.163381         0.091811
 O         2.048124        -1.231710        -0.303001
 C         3.363018         0.154464         0.887748
 O         1.959981         0.314889         1.315386
 H        -0.721835        -0.492290         0.864331
 H        -0.486918         1.089766        -0.145314
 H        -0.403141        -0.423914        -0.931701
 H         1.986853         0.666615        -1.878953
 H         1.645404         2.193389        -0.898909
 H         4.212737         1.882209        -0.192879
 H         4.378856        -0.521490        -2.000376
 H         5.422475        -0.342300        -0.596420
 H         3.739674        -2.095477         0.353806
 H         3.956192         0.216893         1.849635
