19
Iteration:   888charge 0 multiplicity 1
 C         0.033547         0.007379        -0.058533
 C         1.440272        -0.009607        -0.002658
 C         2.141365         1.124199        -0.917098
 C         3.620227         0.996302        -0.380143
 C         4.198181        -0.357853        -0.909047
 C         3.422183        -1.136895         0.168750
 O         2.002875        -1.320549        -0.251352
 C         3.325910         0.249529         0.938213
 O         1.972811         0.476539         1.272042
 H        -0.340750        -0.932153         0.543680
 H        -0.314256         0.874570         0.404372
 H        -0.293089         0.038376        -1.125960
 H         1.936704         0.686075        -1.979506
 H         1.675986         2.071221        -0.827261
 H         4.271242         1.966241        -0.409534
 H         4.060520        -0.695132        -1.939015
 H         5.306377        -0.412145        -0.583818
 H         3.693889        -2.031773         0.717147
 H         3.933300         0.290040         1.879099
