19
Iteration:  4030
 C        -0.104809         0.020730        -0.018241
 C         1.458976         0.092072        -0.024881
 C         2.093452         1.128189        -0.865995
 C         3.578352         0.936008        -0.358423
 C         4.277676        -0.315985        -0.926084
 C         3.391938        -1.128755         0.127464
 O         2.059861        -1.256835        -0.323586
 C         3.340856         0.166406         0.961492
 O         2.021205         0.367577         1.278563
 H        -0.526893        -0.620011         0.697592
 H        -0.442066         0.927280         0.443195
 H        -0.519886        -0.179754        -0.980882
 H         2.008101         0.914117        -1.896554
 H         1.861375         2.119357        -0.580827
 H         4.268057         1.744431        -0.355755
 H         4.291671        -0.545116        -1.986648
 H         5.347296        -0.443078        -0.453667
 H         3.794731        -2.093710         0.319318
 H         3.905518         0.444886         1.851026
