19
Iteration:  4676charge 0 multiplicity 1
 C        -0.057455        -0.003620         0.112579
 C         1.494246         0.112860        -0.072746
 C         2.170329         1.046338        -0.943314
 C         3.636965         0.935919        -0.367760
 C         4.319155        -0.315887        -0.878299
 C         3.416503        -1.098276         0.019811
 O         1.974350        -1.197020        -0.324651
 C         3.332931         0.167605         1.055223
 O         1.910017         0.356939         1.247485
 H        -0.308891        -0.626133         0.922389
 H        -0.421267         1.031840         0.240113
 H        -0.472617        -0.409059        -0.863994
 H         1.963177         0.918940        -2.052950
 H         1.733833         2.024419        -0.689407
 H         4.028743         1.977458        -0.363682
 H         4.360534        -0.603007        -1.967170
 H         5.441302        -0.271318        -0.542325
 H         3.603699        -2.086309         0.497954
 H         3.890051         0.171143         2.026657
