19
Iteration:  1709charge 0 multiplicity 1
 C        -0.063126        -0.065521        -0.072428
 C         1.468619         0.092062        -0.011926
 C         2.132549         1.093848        -0.901829
 C         3.614743         0.953632        -0.409588
 C         4.218383        -0.381844        -0.953945
 C         3.397504        -1.103128         0.117328
 O         1.995149        -1.212667        -0.259029
 C         3.387474         0.171406         1.043791
 O         2.012455         0.483406         1.317939
 H        -0.427929        -0.954347         0.594149
 H        -0.657288         0.800762         0.161047
 H        -0.273082        -0.185796        -1.146027
 H         2.112592         0.921007        -1.898970
 H         1.765777         2.052504        -0.654101
 H         4.332139         1.894613        -0.448515
 H         3.867302        -0.856629        -1.915448
 H         5.245296        -0.591964        -0.735093
 H         3.863398        -2.083022         0.455538
 H         3.899375         0.378483         1.994546
