19
Iteration:  3783charge 0 multiplicity 1
 C        -0.111700        -0.010582        -0.142990
 C         1.479419         0.092428         0.067422
 C         2.147418         1.046757        -0.874721
 C         3.628774         0.958588        -0.356180
 C         4.223958        -0.303828        -0.986979
 C         3.400761        -1.080122         0.107382
 O         1.974986        -1.242020        -0.215415
 C         3.416637         0.239275         1.021725
 O         2.009665         0.346742         1.323256
 H        -0.386299        -1.054600         0.231207
 H        -0.599721         0.983973         0.173823
 H        -0.231326         0.035819        -1.272745
 H         2.182154         0.716807        -1.921911
 H         1.618092         1.929901        -0.869980
 H         4.167484         1.894120        -0.409947
 H         3.907872        -0.534793        -2.141602
 H         5.302613        -0.377371        -0.654224
 H         3.688357        -2.145013         0.299712
 H         4.095669         0.392572         1.907075
