19
Iteration:   154
 C        -0.084034        -0.066318         0.173610
 C         1.436051         0.141707        -0.044724
 C         2.185758         1.150729        -1.085256
 C         3.627832         0.989736        -0.458724
 C         4.219028        -0.430517        -0.833082
 C         3.438549        -1.116136         0.240402
 O         2.090133        -1.204976        -0.382725
 C         3.346714         0.198635         1.008732
 O         1.917556         0.390984         1.253753
 H        -0.159891        -0.995911         0.829171
 H        -0.480237         0.722702         0.671053
 H        -0.684033        -0.186063        -0.767888
 H         2.026632         0.797449        -2.084601
 H         1.746873         2.144843        -1.114340
 H         4.173643         1.884476        -0.584836
 H         4.068939        -0.902202        -1.803561
 H         5.258405        -0.437996        -0.674140
 H         3.708480        -1.961884         0.680580
 H         3.903565         0.375615         1.979247
