19
Iteration:  1375
 C        -0.117492         0.086468         0.043285
 C         1.420982         0.117375         0.037798
 C         2.119684         1.074073        -0.913040
 C         3.624787         0.961305        -0.386645
 C         4.407473        -0.272549        -0.900623
 C         3.326667        -1.153778         0.076949
 O         2.049549        -1.248139        -0.310270
 C         3.362029         0.160937         0.896710
 O         1.957080         0.305692         1.311581
 H        -0.783806        -0.397098         0.944354
 H        -0.467814         1.117639        -0.086986
 H        -0.403153        -0.373420        -0.933723
 H         2.021035         0.671064        -1.915989
 H         1.628942         2.023907        -0.863918
 H         4.223463         1.840939        -0.156508
 H         4.406549        -0.514457        -1.978028
 H         5.456344        -0.244511        -0.449606
 H         3.855988        -2.032557         0.442014
 H         3.948676         0.125489         1.807065
