19
Iteration:   593charge 0 multiplicity 1
 C        -0.086050        -0.028347         0.030875
 C         1.433259         0.065434        -0.012209
 C         2.161389         1.161705        -0.936892
 C         3.571229         0.970113        -0.416948
 C         4.300040        -0.423342        -0.894085
 C         3.386832        -1.122020         0.133823
 O         2.034234        -1.191928        -0.345920
 C         3.347761         0.210404         0.998651
 O         1.980216         0.382658         1.313796
 H        -0.370379        -0.555354         0.925125
 H        -0.607388         0.967212         0.198757
 H        -0.433264        -0.528631        -0.897272
 H         2.063453         0.758247        -2.006090
 H         1.606606         2.105387        -0.887496
 H         4.360925         1.802423        -0.466755
 H         4.431464        -0.745227        -1.939793
 H         5.284497        -0.426273        -0.409238
 H         3.832570        -2.048922         0.406829
 H         3.947179         0.441044         1.834042
