19
Iteration:   426charge 0 multiplicity 1
 C        -0.130133         0.095193         0.043615
 C         1.448021         0.005351         0.003565
 C         2.066596         1.004114        -0.940548
 C         3.644396         0.945454        -0.328366
 C         4.361687        -0.343080        -0.954885
 C         3.474549        -1.144401         0.039435
 O         2.117035        -1.173551        -0.309463
 C         3.247096         0.210979         0.945262
 O         1.930114         0.370732         1.344687
 H        -0.619758        -0.227025         0.977859
 H        -0.402464         1.172930         0.082326
 H        -0.601641        -0.388568        -0.786867
 H         1.928344         0.739828        -1.963211
 H         1.706124         2.044466        -0.762080
 H         4.053772         1.908047        -0.204161
 H         4.408291        -0.448017        -2.065804
 H         5.355354        -0.535182        -0.569143
 H         3.765147        -2.199233         0.312999
 H         4.030236         0.319237         1.800802
