19
Iteration:  2286charge 0 multiplicity 1
 C        -0.034519        -0.081889        -0.133401
 C         1.445773         0.141706        -0.022442
 C         2.150764         1.242411        -0.830825
 C         3.610378         0.891012        -0.395516
 C         4.124200        -0.448187        -0.969516
 C         3.383811        -1.158924         0.215212
 O         2.095825        -1.209640        -0.343893
 C         3.385012         0.250222         1.061274
 O         1.995083         0.405495         1.333762
 H        -0.232280        -1.009875         0.454201
 H        -0.649702         0.721853         0.376782
 H        -0.350651        -0.348586        -1.203126
 H         1.860130         1.124231        -1.852477
 H         1.747297         2.213548        -0.540249
 H         4.150420         1.756655        -0.647843
 H         3.788368        -0.585786        -2.028993
 H         5.171401        -0.541034        -0.961448
 H         3.981145        -2.030450         0.618028
 H         4.020247         0.359325         1.937091
