19
Iteration:  1223charge 0 multiplicity 1
 C        -0.052079        -0.047973         0.010091
 C         1.428431         0.076760        -0.024815
 C         2.224964         1.123311        -0.911305
 C         3.667389         1.001294        -0.405187
 C         4.248699        -0.349758        -0.876706
 C         3.325293        -1.092973         0.128158
 O         1.996191        -1.182387        -0.350271
 C         3.323660         0.207191         0.971621
 O         1.972534         0.329991         1.313440
 H        -0.300575        -0.761316         0.871413
 H        -0.417750         0.891889         0.230348
 H        -0.389752        -0.441093        -0.966784
 H         1.881521         0.854923        -1.977450
 H         1.963773         2.155180        -0.720093
 H         4.291623         1.887905        -0.412610
 H         4.102357        -0.834968        -1.856832
 H         5.332891        -0.417245        -0.556638
 H         3.656380        -2.110292         0.630757
 H         4.102589         0.229655         1.726039
