19
Iteration:  2246charge 0 multiplicity 1
 C        -0.107869         0.049734        -0.024017
 C         1.436357         0.113572        -0.021547
 C         2.165141         1.032073        -0.910591
 C         3.646532         0.975520        -0.404569
 C         4.263261        -0.296672        -0.917262
 C         3.415120        -1.113088         0.036557
 O         2.019465        -1.327095        -0.260748
 C         3.382380         0.214320         1.000760
 O         1.937097         0.376624         1.325750
 H        -0.387385        -0.856429         0.537654
 H        -0.612594         0.775744         0.543814
 H        -0.509280         0.197044        -0.984974
 H         2.085878         0.821368        -2.004534
 H         1.796661         2.082518        -0.572147
 H         4.278523         1.873752        -0.544844
 H         4.452522        -0.490705        -2.006384
 H         5.321758        -0.395706        -0.487959
 H         3.563754        -2.039746         0.488863
 H         4.014406         0.357127         1.961428
