19
Iteration:  3335
 C        -0.049236        -0.061540         0.075112
 C         1.429897         0.124973        -0.012370
 C         2.199117         1.126372        -0.871113
 C         3.624821         0.979530        -0.343936
 C         4.293991        -0.358681        -0.882734
 C         3.378658        -1.150186         0.082522
 O         2.014385        -1.248647        -0.367414
 C         3.262532         0.161497         0.928285
 O         1.965361         0.443920         1.263426
 H        -0.279666        -0.646884         0.974182
 H        -0.522578         0.846203        -0.055439
 H        -0.398312        -0.616045        -0.771369
 H         2.349364         0.839532        -1.976058
 H         1.993728         2.243616        -0.820011
 H         4.211640         1.889452        -0.151268
 H         4.044365        -0.410448        -1.967665
 H         5.303228        -0.449136        -0.590589
 H         3.764350        -2.161724         0.530009
 H         3.898706         0.305994         1.862509
