19
Iteration:  3346
 C        -0.111159        -0.096379        -0.038280
 C         1.397007         0.140285         0.056539
 C         2.184128         1.180368        -0.887820
 C         3.650052         0.955850        -0.312384
 C         4.300277        -0.344148        -0.929799
 C         3.334820        -1.161950         0.148949
 O         2.023446        -1.217271        -0.369471
 C         3.394455         0.160446         0.945926
 O         1.990564         0.442021         1.279728
 H        -0.427869        -0.638180         0.862860
 H        -0.664966         0.764023         0.042660
 H        -0.236267        -0.705890        -0.907233
 H         1.955501         0.802951        -1.963951
 H         1.685340         2.217693        -0.803856
 H         4.187741         1.910902        -0.233910
 H         4.183942        -0.725801        -1.968004
 H         5.355709        -0.444664        -0.789204
 H         3.523877        -2.186143         0.677179
 H         4.141110         0.228749         1.803893
