19
Iteration:   524charge 0 multiplicity 1
 C        -0.000103        -0.031280        -0.100042
 C         1.459784         0.054711         0.043418
 C         2.128368         1.071370        -0.861223
 C         3.639824         0.998537        -0.443357
 C         4.229870        -0.347741        -0.955171
 C         3.374593        -1.064757         0.127525
 O         1.969435        -1.208985        -0.227272
 C         3.351767         0.158701         0.929822
 O         2.012776         0.388444         1.329297
 H        -0.325467        -0.959577         0.327121
 H        -0.565500         0.716581         0.534534
 H        -0.163137         0.042092        -1.138598
 H         2.043703         0.871180        -1.912948
 H         1.617289         2.048024        -0.710526
 H         4.166482         1.937560        -0.451101
 H         4.158786        -0.616028        -2.050154
 H         5.297142        -0.445099        -0.675991
 H         3.556279        -1.984839         0.769508
 H         4.011938         0.272243         1.870157
