19
Iteration:  1761
 C        -0.072446         0.061551        -0.061507
 C         1.496990         0.002118        -0.070945
 C         2.151942         1.062430        -0.864286
 C         3.590807         0.929520        -0.398182
 C         4.210352        -0.287721        -1.008049
 C         3.448326        -1.166553         0.197207
 O         2.045707        -1.246139        -0.221171
 C         3.322001         0.232911         0.997117
 O         1.966304         0.396897         1.304872
 H        -0.533643        -0.267495         0.897852
 H        -0.337085         1.086437        -0.226898
 H        -0.459933        -0.514736        -0.913541
 H         2.053236         0.900337        -1.953411
 H         1.886251         2.092899        -0.650016
 H         4.189847         1.759128        -0.548895
 H         3.876828        -0.555964        -1.980050
 H         5.271310        -0.403779        -0.890251
 H         3.850743        -2.083440         0.638748
 H         3.957494         0.387308         1.878989
