19
Iteration:     7charge 0 multiplicity 1
 C        -0.006962        -0.063256         0.043856
 C         1.439145         0.103479         0.013717
 C         2.195154         1.081277        -0.954320
 C         3.575219         0.929260        -0.486548
 C         4.230157        -0.392373        -0.877735
 C         3.406713        -1.068372         0.110690
 O         2.032581        -1.268867        -0.255604
 C         3.345065         0.283266         0.934706
 O         1.951485         0.427835         1.310152
 H        -0.276427        -0.753843         0.840618
 H        -0.505476         0.979495         0.257415
 H        -0.347790        -0.429494        -0.924884
 H         2.073643         0.736149        -2.017220
 H         1.810691         2.116022        -0.799544
 H         4.182412         1.877746        -0.515189
 H         3.895031        -0.697462        -1.887869
 H         5.308470        -0.478148        -0.515014
 H         3.465050        -2.031830         0.712937
 H         4.157862         0.486700         1.647291
