19
Iteration:  3279charge 0 multiplicity 1
 C        -0.058371         0.097514        -0.104503
 C         1.451872         0.057788         0.063816
 C         2.096701         1.031269        -0.848152
 C         3.559127         0.937520        -0.436540
 C         4.285769        -0.320001        -0.952547
 C         3.392692        -1.146875         0.095814
 O         2.094445        -1.237271        -0.338730
 C         3.355636         0.166308         1.041505
 O         1.949235         0.376113         1.386889
 H        -0.545377        -0.632889         0.547356
 H        -0.444026         1.059614         0.183488
 H        -0.277802        -0.035896        -1.130945
 H         1.975319         0.913241        -2.001217
 H         1.848736         2.152921        -0.778858
 H         4.077482         1.928430        -0.374594
 H         4.379467        -0.531143        -2.064541
 H         5.294481        -0.335053        -0.683247
 H         3.795238        -2.193881         0.325300
 H         3.917968         0.392413         1.983191
