19
Iteration:   337charge 0 multiplicity 1
 C        -0.030533         0.022598        -0.037330
 C         1.461591        -0.002387        -0.069991
 C         2.165812         1.102269        -0.903488
 C         3.574670         0.987750        -0.458895
 C         4.227954        -0.343189        -0.908614
 C         3.456134        -1.141976         0.116361
 O         1.970559        -1.229517        -0.219445
 C         3.337122         0.289901         1.010264
 O         2.002415         0.305726         1.332551
 H        -0.540223        -0.840566         0.526624
 H        -0.267937         0.891954         0.421847
 H        -0.352227         0.200494        -1.086561
 H         2.010412         0.907146        -1.964287
 H         1.755462         2.091163        -0.743323
 H         4.011559         1.929647        -0.443188
 H         4.151345        -0.501939        -1.986088
 H         5.303090        -0.381329        -0.673380
 H         3.783638        -2.200335         0.358867
 H         3.985973         0.526072         1.888206
