19
Iteration:   578
 C         0.044740         0.054713         0.081791
 C         1.466377         0.091599        -0.065359
 C         2.142779         1.049950        -1.009058
 C         3.589743         0.939896        -0.405407
 C         4.283677        -0.280387        -0.815440
 C         3.431518        -1.113296         0.181856
 O         1.960580        -1.250603        -0.351004
 C         3.293008         0.244829         0.904168
 O         1.965138         0.281733         1.313357
 H        -0.154903        -0.623251         0.903634
 H        -0.289741         1.085644         0.237606
 H        -0.408225        -0.241238        -0.820042
 H         2.016371         0.847723        -2.022922
 H         1.916467         2.098175        -0.748495
 H         3.918621         1.916958        -0.374787
 H         4.070168        -0.595557        -1.874816
 H         5.366654        -0.276862        -0.603228
 H         3.371506        -2.064583         0.780264
 H         4.080150         0.328863         1.733948
