19
Iteration:   716charge 0 multiplicity 1
 C        -0.050387        -0.066545         0.105180
 C         1.453098         0.088935        -0.072679
 C         2.128888         1.136352        -0.993529
 C         3.672582         0.917368        -0.363806
 C         4.278232        -0.412009        -0.865367
 C         3.376602        -1.099677         0.142069
 O         2.070551        -1.199116        -0.333254
 C         3.275238         0.206033         0.943108
 O         1.926280         0.467976         1.294437
 H        -0.123523        -1.153277         0.621150
 H        -0.506347         0.693294         0.680494
 H        -0.704810        -0.087614        -0.804659
 H         2.067805         0.774395        -2.083033
 H         1.906668         2.225797        -0.947473
 H         4.290459         1.891609        -0.241538
 H         4.177005        -0.660964        -1.906591
 H         5.336249        -0.606662        -0.550740
 H         3.628139        -2.108676         0.476372
 H         4.087847         0.318380         1.718539
