19
Iteration:   627
 C        -0.005662        -0.097370        -0.090065
 C         1.454793         0.064945        -0.031296
 C         2.244522         1.215986        -0.873637
 C         3.620830         0.938334        -0.373514
 C         4.216081        -0.377952        -1.039261
 C         3.363366        -1.097103         0.197765
 O         1.941028        -1.265495        -0.245312
 C         3.345361         0.260926         0.984165
 O         1.998300         0.423558         1.345863
 H        -0.191560        -0.704429         0.837553
 H        -0.581893         0.782115        -0.213327
 H        -0.251844        -0.786351        -0.968142
 H         2.061614         0.976762        -1.986010
 H         1.696029         2.113111        -0.591882
 H         4.269769         1.898480        -0.283626
 H         3.961925        -0.695763        -2.038286
 H         5.288655        -0.503695        -0.819165
 H         3.497850        -2.098318         0.487477
 H         4.070044         0.426888         1.765364
