19
Iteration:  4047charge 0 multiplicity 1
 C        -0.059040        -0.073614        -0.065351
 C         1.389049         0.061230         0.001214
 C         2.230789         1.149499        -0.869811
 C         3.638154         0.993349        -0.376649
 C         4.256626        -0.365024        -0.954137
 C         3.415345        -1.137162         0.013731
 O         1.955218        -1.172916        -0.241175
 C         3.399598         0.180320         0.975363
 O         1.972920         0.388875         1.372240
 H        -0.486129        -0.927962         0.563769
 H        -0.665202         0.861017         0.147144
 H        -0.276068        -0.436084        -1.144439
 H         2.112204         0.945027        -1.986855
 H         1.687413         2.122569        -0.590287
 H         4.221619         1.994432        -0.325115
 H         4.028519        -0.560312        -2.028277
 H         5.260299        -0.388141        -0.659767
 H         3.579487        -2.087148         0.557145
 H         4.163914         0.148110         1.765694
