19
Iteration:   738
 C        -0.123239        -0.122916         0.019686
 C         1.456659         0.069103         0.009907
 C         2.277817         1.082147        -0.816752
 C         3.686982         0.961022        -0.427415
 C         4.264705        -0.419215        -0.951923
 C         3.407527        -1.077570         0.215552
 O         1.961048        -1.231220        -0.372701
 C         3.332634         0.300818         0.998252
 O         1.956898         0.444198         1.237459
 H        -0.462840        -1.122684         0.642321
 H        -0.619782         0.716794         0.484733
 H        -0.649473        -0.133700        -0.953810
 H         2.219348         1.021251        -1.967080
 H         1.948971         2.139623        -0.536191
 H         4.207448         1.914515        -0.885213
 H         4.063554        -0.628218        -1.984534
 H         5.373133        -0.451945        -0.807585
 H         3.437650        -2.030882         0.707364
 H         3.881801         0.475288         1.977891
