19
Iteration:    78charge 0 multiplicity 1
 C         0.057141         0.034151        -0.067229
 C         1.481483         0.030917         0.010094
 C         2.146870         1.040225        -0.950644
 C         3.602961         1.024634        -0.490774
 C         4.148875        -0.351289        -0.917968
 C         3.399502        -1.020037         0.177814
 O         1.996280        -1.283631        -0.136023
 C         3.390065         0.303536         0.959059
 O         1.969233         0.286849         1.292525
 H        -0.440486        -0.522837         0.792456
 H        -0.206763         1.003298        -0.013438
 H        -0.310768        -0.358474        -1.058316
 H         2.053371         0.722499        -1.973366
 H         1.635625         1.993000        -0.841047
 H         4.053358         1.949629        -0.707105
 H         3.836989        -0.696498        -1.918152
 H         5.159332        -0.534424        -0.667100
 H         3.704415        -1.949796         0.480405
 H         4.067568         0.420828         1.848622
