19
Iteration:   811
 C        -0.094888         0.011142         0.020857
 C         1.403842         0.020028        -0.047631
 C         2.209118         1.172934        -0.918534
 C         3.634930         0.978857        -0.442901
 C         4.297953        -0.363226        -0.944301
 C         3.453759        -1.088863         0.139857
 O         2.019541        -1.259802        -0.223210
 C         3.352422         0.187581         1.010703
 O         1.915009         0.378251         1.271303
 H        -0.472836        -0.457374         0.938112
 H        -0.351124         1.035568        -0.146734
 H        -0.553990        -0.437495        -0.917362
 H         2.180295         0.854048        -2.030586
 H         1.591841         2.023732        -0.857974
 H         4.279112         1.935124        -0.347279
 H         4.110466        -0.652032        -1.985047
 H         5.399877        -0.525852        -0.681121
 H         3.629955        -2.103192         0.511362
 H         3.870207         0.237732         2.016278
