19
Iteration:  3153charge 0 multiplicity 1
 C        -0.063301         0.112000         0.017611
 C         1.465878         0.048915        -0.029647
 C         2.212233         1.101514        -0.912914
 C         3.594959         1.048751        -0.322629
 C         4.239797        -0.293537        -0.931956
 C         3.466030        -1.149841         0.098667
 O         2.000770        -1.303131        -0.353264
 C         3.299182         0.123711         1.041519
 O         1.933574         0.347980         1.269221
 H        -0.473713        -0.501810         0.881052
 H        -0.430671         1.129474         0.211667
 H        -0.432231        -0.403033        -0.895351
 H         2.248715         0.828450        -1.948341
 H         1.694145         2.044279        -0.707293
 H         4.283579         1.862595        -0.227820
 H         4.108493        -0.457221        -1.953290
 H         5.301205        -0.507957        -0.691388
 H         3.808094        -2.132296         0.373785
 H         4.084221         0.345496         1.854784
