19
Iteration:   146charge 0 multiplicity 1
 C        -0.025735        -0.139961         0.103061
 C         1.406403         0.091070        -0.105686
 C         2.169131         1.194098        -1.072289
 C         3.581029         0.976225        -0.493863
 C         4.249077        -0.432409        -0.848471
 C         3.410728        -1.064072         0.242967
 O         1.993702        -1.179500        -0.309650
 C         3.364030         0.214672         1.037718
 O         1.985010         0.364669         1.276232
 H        -0.240241        -0.954783         0.772321
 H        -0.317321         0.833434         0.664697
 H        -0.633473        -0.117514        -0.782035
 H         2.199076         0.858097        -2.117890
 H         1.907066         2.275027        -1.032171
 H         4.325081         1.815964        -0.539337
 H         3.901224        -0.894029        -1.823734
 H         5.336353        -0.346536        -0.682353
 H         3.774193        -2.042151         0.770605
 H         3.951920         0.363036         2.022553
