19
Iteration:  2845
 C        -0.073085        -0.002259        -0.138766
 C         1.354244         0.094294         0.005236
 C         2.167176         1.102265        -0.861878
 C         3.667676         0.950341        -0.412555
 C         4.228984        -0.388594        -1.000820
 C         3.411231        -1.123534         0.121510
 O         2.044558        -1.232237        -0.197419
 C         3.400565         0.254205         1.011758
 O         1.973983         0.369366         1.374144
 H        -0.400077        -0.983878         0.072015
 H        -0.693864         0.853086         0.258787
 H        -0.252397         0.002400        -1.219842
 H         2.126591         0.863857        -1.945713
 H         1.663559         2.119643        -0.701338
 H         4.130041         1.959343        -0.469178
 H         4.049722        -0.521489        -2.059289
 H         5.385079        -0.542070        -0.854471
 H         3.682481        -2.090484         0.525689
 H         3.855145         0.331515         1.966065
