19
Iteration:  1071
 C        -0.084361        -0.058043        -0.045826
 C         1.454904         0.059967         0.020822
 C         2.260648         1.110334        -0.857479
 C         3.642223         0.914890        -0.380019
 C         4.128728        -0.402262        -0.904706
 C         3.365799        -1.093782         0.151130
 O         2.076888        -1.238717        -0.341310
 C         3.369613         0.280896         1.000973
 O         1.963047         0.457361         1.244301
 H        -0.137407        -1.074470         0.503888
 H        -0.497201         0.739031         0.439455
 H        -0.476180        -0.065453        -1.076573
 H         2.020764         1.036495        -2.020262
 H         1.791478         2.011218        -0.509336
 H         4.057419         1.814888        -0.230180
 H         3.838901        -0.572856        -1.930979
 H         5.246292        -0.418789        -0.843577
 H         3.628812        -2.188894         0.528318
 H         3.963043         0.307159         1.953998
