19
Iteration:  2977charge 0 multiplicity 1
 C        -0.032498        -0.074863        -0.147847
 C         1.463509         0.010304        -0.066715
 C         2.269880         1.243152        -0.790033
 C         3.638931         0.985350        -0.406782
 C         4.113202        -0.410814        -0.974877
 C         3.391469        -1.138650         0.103662
 O         2.051299        -1.216038        -0.232751
 C         3.339139         0.194848         1.051500
 O         1.953099         0.401239         1.323262
 H        -0.309867        -0.802578         0.684580
 H        -0.553752         0.867819         0.095841
 H        -0.331185        -0.412012        -1.161219
 H         2.091078         1.254174        -1.903024
 H         1.673750         2.249174        -0.423560
 H         4.289110         1.866565        -0.522108
 H         3.703256        -0.706827        -1.911948
 H         5.265496        -0.398151        -0.907476
 H         3.640139        -2.128624         0.508408
 H         3.982934         0.361493         1.952405
