19
Iteration:  2693
 C        -0.017078         0.029442        -0.122127
 C         1.501399         0.026152        -0.028582
 C         2.198105         1.118503        -0.933177
 C         3.608747         0.960688        -0.349776
 C         4.186009        -0.245591        -1.014435
 C         3.431547        -1.113520         0.156064
 O         2.006118        -1.328291        -0.111939
 C         3.304694         0.165110         0.951849
 O         1.973342         0.418008         1.336761
 H        -0.410163        -0.725696         0.578843
 H        -0.458180         1.106329         0.079782
 H        -0.261584        -0.143594        -1.223729
 H         1.909092         0.827633        -1.946752
 H         1.736924         2.063354        -0.765582
 H         4.250203         1.893550        -0.431589
 H         3.738982        -0.618423        -1.908122
 H         5.283828        -0.529438        -1.001279
 H         3.790854        -2.092690         0.376758
 H         3.911854         0.319214         1.821543
