19
Iteration:  1737charge 0 multiplicity 1
 C        -0.052884         0.044089        -0.167946
 C         1.484916         0.071465         0.049845
 C         2.114686         1.116491        -0.835691
 C         3.604052         0.998802        -0.472356
 C         4.229846        -0.349003        -1.006535
 C         3.373202        -1.122627         0.132156
 O         2.033480        -1.302634        -0.159148
 C         3.359541         0.221124         0.916006
 O         1.989643         0.351252         1.408092
 H        -0.659917        -0.466874         0.508726
 H        -0.409795         1.088953        -0.288783
 H        -0.085096        -0.416681        -1.184381
 H         1.990501         0.867613        -1.995939
 H         1.739025         2.171804        -0.672600
 H         4.270373         1.772395        -0.439439
 H         4.005333        -0.724695        -1.979746
 H         5.264463        -0.667037        -0.662434
 H         3.979944        -1.855760         0.597737
 H         3.896278         0.511535         1.842143
