19
Iteration:  4731charge 0 multiplicity 1
 C         0.042675        -0.024076        -0.125138
 C         1.467250         0.137964         0.066842
 C         2.151531         1.158255        -0.805918
 C         3.595152         0.931281        -0.451932
 C         4.248818        -0.371796        -0.973192
 C         3.413037        -1.145271         0.080041
 O         2.022736        -1.239997        -0.283490
 C         3.326355         0.186960         0.941682
 O         1.932396         0.377305         1.403066
 H        -0.340847        -0.829025         0.446065
 H        -0.510893         0.847045         0.195648
 H        -0.303560        -0.043488        -1.168553
 H         1.883535         0.770295        -1.848286
 H         1.742304         2.151599        -0.693805
 H         4.021122         1.909263        -0.231009
 H         3.984673        -0.587760        -1.991825
 H         5.297841        -0.417080        -0.731971
 H         3.657462        -2.041156         0.665384
 H         4.072227         0.389048         1.744081
