19
Iteration:  3287
 C        -0.074597         0.138154        -0.012812
 C         1.391748         0.041653         0.080555
 C         2.140625         1.039954        -0.928507
 C         3.565005         0.923325        -0.374791
 C         4.273640        -0.304370        -0.904427
 C         3.472130        -1.117904         0.067260
 O         2.099499        -1.269144        -0.363928
 C         3.333542         0.188818         1.000456
 O         1.934626         0.352536         1.339304
 H        -0.525180        -0.646542         0.577879
 H        -0.465743         1.221686         0.040183
 H        -0.308302        -0.140333        -1.087872
 H         1.956553         0.829560        -2.049051
 H         1.848895         2.158433        -0.572986
 H         4.190163         1.825975        -0.304166
 H         4.150242        -0.640824        -1.923116
 H         5.284134        -0.271409        -0.458263
 H         3.737954        -2.084371         0.395603
 H         4.081990         0.319693         1.728684
