19
Iteration:  2496
 C        -0.130690        -0.031953         0.112520
 C         1.405129         0.122555         0.032369
 C         2.143981         1.013935        -0.979212
 C         3.699235         0.919445        -0.341167
 C         4.348789        -0.285939        -0.944477
 C         3.373039        -1.125811         0.097423
 O         1.996576        -1.171203        -0.341828
 C         3.283478         0.212943         1.019134
 O         1.988727         0.387170         1.242228
 H        -0.240870        -0.844786         0.903745
 H        -0.495209         0.963586         0.419560
 H        -0.276477        -0.455119        -0.864521
 H         2.176521         0.478605        -1.923213
 H         1.839348         2.025691        -1.225936
 H         4.132181         1.922093        -0.490768
 H         4.367859        -0.423817        -2.012568
 H         5.373813        -0.376401        -0.578527
 H         3.737358        -2.040055         0.552808
 H         3.862473         0.224041         1.935942
