19
Iteration:  3678
 C        -0.076631        -0.036352        -0.107539
 C         1.523891         0.027110        -0.038640
 C         2.198919         1.128160        -0.912638
 C         3.597967         0.989848        -0.364185
 C         4.190000        -0.352206        -1.027729
 C         3.421759        -1.108860         0.143483
 O         2.011641        -1.268698        -0.198047
 C         3.335713         0.175491         1.023594
 O         1.966839         0.450669         1.345262
 H        -0.457212        -0.679116         0.732332
 H        -0.498898         0.930253        -0.027031
 H        -0.241168        -0.409339        -1.080354
 H         2.096968         1.134862        -2.025369
 H         1.644830         2.106742        -0.524998
 H         4.197924         1.913599        -0.523293
 H         4.051833        -0.622999        -2.009895
 H         5.233644        -0.486637        -0.771563
 H         3.700880        -2.093953         0.494674
 H         4.038373         0.243708         1.873636
