19
Iteration:  2420charge 0 multiplicity 1
 C        -0.061428        -0.145038        -0.149776
 C         1.462113         0.112089         0.080692
 C         2.216536         1.195813        -0.924640
 C         3.640166         0.910654        -0.371100
 C         4.150231        -0.335680        -1.034855
 C         3.331706        -1.102311         0.160666
 O         1.997686        -1.226009        -0.244411
 C         3.418342         0.223503         1.018392
 O         1.985260         0.419442         1.368823
 H        -0.237639        -1.183086         0.301313
 H        -0.509376         0.750830         0.247795
 H        -0.216642        -0.187576        -1.205821
 H         2.078864         0.701803        -1.880262
 H         1.664785         2.124267        -0.713702
 H         4.326528         1.757844        -0.361355
 H         3.840480        -0.634568        -2.009143
 H         5.218521        -0.385879        -0.922297
 H         3.755615        -2.035432         0.499852
 H         4.179722         0.519893         1.792607
