19
Iteration:   279charge 0 multiplicity 1
 C        -0.051162        -0.060341         0.017966
 C         1.437250         0.146643        -0.020659
 C         2.155662         1.078686        -0.935027
 C         3.613067         0.942281        -0.507113
 C         4.285564        -0.365895        -0.891670
 C         3.357321        -1.083073         0.110603
 O         2.028440        -1.190849        -0.283856
 C         3.357763         0.185603         0.995857
 O         1.935476         0.399983         1.346092
 H        -0.230777        -0.806440         0.754474
 H        -0.463579         0.969106         0.332910
 H        -0.375296        -0.511904        -0.909032
 H         1.964734         0.626646        -1.940470
 H         1.889944         2.131301        -0.758313
 H         4.175669         1.936284        -0.577852
 H         4.336868        -0.555069        -1.982964
 H         5.303809        -0.489780        -0.390994
 H         3.817818        -2.089679         0.503729
 H         4.009991         0.148665         1.816735
