19
Iteration:  1748charge 0 multiplicity 1
 C        -0.008460         0.086108        -0.145685
 C         1.411273         0.042928         0.114011
 C         2.164985         1.127266        -0.901419
 C         3.613808         0.989844        -0.474423
 C         4.199352        -0.420251        -0.979666
 C         3.480639        -1.047096         0.096049
 O         2.033385        -1.325871        -0.168552
 C         3.363676         0.216705         1.044240
 O         1.933027         0.357207         1.317234
 H        -0.532322        -0.375216         0.642457
 H        -0.352971         1.125014        -0.272946
 H        -0.241504        -0.535365        -1.034103
 H         1.873232         0.954934        -2.048354
 H         1.606228         2.038825        -0.535340
 H         4.082157         1.901882        -0.483916
 H         4.028049        -0.722273        -1.984964
 H         5.320762        -0.273607        -0.905493
 H         3.726139        -2.047924         0.375323
 H         4.047957         0.308618         1.924157
