19
Iteration:  3657charge 0 multiplicity 1
 C        -0.055599         0.077937        -0.143253
 C         1.474268         0.044667         0.034366
 C         2.159346         1.122164        -0.812311
 C         3.614360         0.938729        -0.391126
 C         4.153593        -0.341248        -0.957928
 C         3.454473        -1.094976         0.173005
 O         2.086547        -1.336159        -0.198079
 C         3.351899         0.305261         0.931664
 O         1.928578         0.304342         1.258188
 H        -0.369607        -0.631657         0.681676
 H        -0.337309         1.072543         0.078184
 H        -0.176087        -0.138887        -1.179770
 H         1.911562         0.989880        -1.864058
 H         1.762862         2.202697        -0.692878
 H         4.306288         1.836412        -0.421305
 H         3.697391        -0.612355        -1.832281
 H         5.211025        -0.580829        -1.052885
 H         3.780866        -2.047501         0.545181
 H         3.866556         0.607460         1.852013
