19
Iteration:  3668
 C         0.014523         0.007995        -0.133728
 C         1.446441         0.049049        -0.018332
 C         2.153695         1.153153        -0.850541
 C         3.634023         0.976200        -0.402661
 C         4.189946        -0.375275        -0.991316
 C         3.430379        -1.172857         0.129303
 O         2.027699        -1.297089        -0.172263
 C         3.313837         0.266471         1.002620
 O         1.964320         0.375967         1.292222
 H        -0.580365        -0.645565         0.574234
 H        -0.336039         0.995441         0.027335
 H        -0.452225        -0.356404        -1.033852
 H         2.092864         0.904818        -1.912204
 H         1.723938         2.185713        -0.495830
 H         4.256024         1.910518        -0.289144
 H         3.831989        -0.525379        -1.947720
 H         5.278400        -0.290229        -1.049560
 H         3.900518        -2.005889         0.605140
 H         3.941714         0.528816         1.866004
