19
Iteration:  2646charge 0 multiplicity 1
 C        -0.049132        -0.076396         0.058852
 C         1.489338         0.137890         0.003967
 C         2.091728         1.141436        -0.997541
 C         3.553741         0.940607        -0.479767
 C         4.337019        -0.414992        -0.865707
 C         3.409798        -1.154394         0.223415
 O         2.060440        -1.165887        -0.371099
 C         3.314296         0.179782         0.969959
 O         1.931872         0.410775         1.323101
 H        -0.167425        -1.009687         0.612537
 H        -0.533223         0.719666         0.590160
 H        -0.506238         0.139916        -0.863608
 H         2.038366         1.075036        -2.055416
 H         1.931498         2.226491        -0.911578
 H         4.173056         1.767295        -0.488707
 H         4.214606        -0.862241        -1.959859
 H         5.413479        -0.314904        -0.604163
 H         3.577871        -2.201519         0.683611
 H         3.939827         0.323627         1.888391
