19
Iteration:  2877charge 0 multiplicity 1
 C        -0.020869        -0.103726         0.059209
 C         1.476430         0.035929        -0.174798
 C         2.207780         1.125732        -0.911470
 C         3.638851         0.949973        -0.345803
 C         4.276630        -0.377806        -0.911844
 C         3.339534        -1.142533         0.172600
 O         2.002001        -1.174455        -0.317330
 C         3.320281         0.208243         0.974613
 O         1.956979         0.450424         1.286679
 H        -0.290595        -0.857209         0.781643
 H        -0.478439         0.815716         0.556859
 H        -0.479673        -0.267011        -0.930223
 H         2.224151         1.140558        -2.050407
 H         1.737841         2.176002        -0.533826
 H         4.155864         1.936514        -0.312981
 H         3.931492        -0.461823        -1.939006
 H         5.430980        -0.529153        -0.839122
 H         3.552018        -2.175728         0.560061
 H         3.732798         0.285037         1.926807
