19
Iteration:  2202charge 0 multiplicity 1
 C        -0.121265         0.097979         0.057944
 C         1.502551         0.043188        -0.045790
 C         2.193956         1.035938        -0.934547
 C         3.623671         0.975174        -0.432947
 C         4.271719        -0.341986        -0.899865
 C         3.429899        -1.080378         0.158029
 O         2.049790        -1.225022        -0.375118
 C         3.273148         0.213881         1.015266
 O         1.923537         0.313525         1.328288
 H        -0.222533        -0.666504         0.835862
 H        -0.519978         1.005504         0.425864
 H        -0.670066        -0.141989        -0.824631
 H         2.218343         0.680599        -1.970452
 H         1.751467         2.079324        -0.809008
 H         4.150510         1.928360        -0.514300
 H         4.177376        -0.748309        -1.940248
 H         5.350660        -0.338375        -0.557082
 H         3.847851        -2.040457         0.287485
 H         3.979115         0.325474         1.880807
