19
Iteration:  2353
 C        -0.045568         0.143821         0.050853
 C         1.424786         0.008824        -0.027959
 C         2.068608         1.000990        -0.932940
 C         3.579887         0.975295        -0.382662
 C         4.296804        -0.307135        -0.913786
 C         3.438244        -1.055915         0.147343
 O         2.100735        -1.238783        -0.400634
 C         3.376006         0.191551         0.957276
 O         1.911369         0.287681         1.340778
 H        -0.332358        -0.295980         1.087931
 H        -0.152796         1.237669         0.060099
 H        -0.653456        -0.418889        -0.695322
 H         2.101853         0.750775        -1.985715
 H         1.829333         2.078925        -0.997683
 H         4.107230         1.883289        -0.332315
 H         4.237079        -0.569616        -1.994355
 H         5.278536        -0.378073        -0.532280
 H         3.473227        -2.053560         0.693180
 H         3.974596         0.315275         1.955422
