19
Iteration:  2419
 C        -0.050847        -0.146649        -0.147819
 C         1.467924         0.110497         0.094682
 C         2.206791         1.190206        -0.927374
 C         3.650421         0.922215        -0.366951
 C         4.149168        -0.331444        -1.027001
 C         3.326135        -1.110598         0.158698
 O         1.988514        -1.223891        -0.250897
 C         3.414933         0.222063         1.018752
 O         1.984484         0.424147         1.359743
 H        -0.218788        -1.200539         0.322069
 H        -0.560531         0.742933         0.227416
 H        -0.232366        -0.191915        -1.221064
 H         2.110466         0.717761        -1.866420
 H         1.714055         2.116601        -0.701917
 H         4.302368         1.764852        -0.378933
 H         3.846773        -0.667015        -2.015318
 H         5.193288        -0.404916        -0.918597
 H         3.801178        -2.048127         0.486518
 H         4.220618         0.522809         1.781022
