19
Iteration:  1139
 C        -0.060350         0.091833         0.023279
 C         1.447765         0.021213        -0.019938
 C         2.112589         0.986678        -0.949907
 C         3.611225         1.023480        -0.324285
 C         4.302115        -0.325889        -0.931428
 C         3.444246        -1.127152         0.111101
 O         2.037405        -1.257382        -0.322478
 C         3.293612         0.149731         0.973683
 O         1.941820         0.405897         1.331758
 H        -0.581683        -0.652578         0.722870
 H        -0.281119         1.190557         0.104320
 H        -0.382819         0.004273        -1.007409
 H         1.941300         0.828895        -2.068789
 H         1.936943         2.024027        -0.684776
 H         4.177131         1.952182        -0.343434
 H         4.174192        -0.564239        -1.984630
 H         5.423235        -0.366151        -0.832094
 H         3.905140        -1.992208         0.629887
 H         3.924645         0.182700         1.811714
