19
Iteration:   399
 C         0.007735        -0.031264        -0.004692
 C         1.477412         0.088545        -0.051950
 C         2.177608         1.216165        -0.855527
 C         3.626855         1.013661        -0.372873
 C         4.169604        -0.377503        -0.939453
 C         3.380365        -1.069728         0.185934
 O         2.005200        -1.294232        -0.316490
 C         3.297432         0.203590         0.942113
 O         2.008996         0.324845         1.261575
 H        -0.296534        -0.720278         0.865324
 H        -0.592381         0.907965         0.145713
 H        -0.371627        -0.641556        -0.867258
 H         2.160321         1.043811        -1.966791
 H         1.802690         2.202251        -0.538169
 H         4.192824         2.025014        -0.412553
 H         3.983026        -0.753795        -1.964268
 H         5.270049        -0.536935        -0.641778
 H         3.740815        -1.988710         0.758076
 H         3.961773         0.277099         1.737581
