19
Iteration:  4712charge 0 multiplicity 1
 C        -0.099937         0.028759        -0.010738
 C         1.409113         0.037391        -0.037648
 C         2.186100         1.100648        -0.917034
 C         3.626417         0.993060        -0.347508
 C         4.224989        -0.359376        -0.962711
 C         3.437201        -1.086205         0.130764
 O         2.043256        -1.208805        -0.299318
 C         3.363178         0.208878         1.042036
 O         1.973020         0.315991         1.274300
 H        -0.587954        -0.659977         0.715679
 H        -0.490704         0.982360         0.361277
 H        -0.444951        -0.153466        -1.019258
 H         2.037023         0.933666        -1.986558
 H         1.775939         2.015523        -0.539961
 H         4.328357         1.780758        -0.525866
 H         3.936606        -0.637581        -1.954616
 H         5.440269        -0.392599        -0.725597
 H         3.730810        -2.098873         0.446083
 H         3.972780         0.263193         1.946283
