19
Iteration:  4387
 C        -0.134874        -0.028858        -0.022689
 C         1.459222         0.068179        -0.021581
 C         2.145456         1.093858        -0.905102
 C         3.629896         0.970125        -0.428704
 C         4.348324        -0.391546        -0.872166
 C         3.368301        -1.091597         0.154303
 O         1.992518        -1.214850        -0.370578
 C         3.354918         0.170096         0.947313
 O         1.997600         0.403903         1.375813
 H        -0.693545        -0.737124         0.597940
 H        -0.541896         0.887837         0.457632
 H        -0.534193        -0.068518        -1.010101
 H         1.923476         0.900969        -1.940197
 H         1.778571         2.126224        -0.656114
 H         4.213778         1.855137        -0.513559
 H         4.489445        -0.535657        -2.079913
 H         5.331696        -0.323328        -0.370252
 H         3.725179        -2.022764         0.529801
 H         4.132745         0.234363         1.767605
