19
Iteration:  3702
 C        -0.116548        -0.155425        -0.008515
 C         1.511978         0.160573         0.044857
 C         2.182389         1.098235        -0.899151
 C         3.661819         0.978425        -0.342883
 C         4.320258        -0.394964        -0.919603
 C         3.358236        -1.157030         0.111371
 O         1.952165        -1.169397        -0.338435
 C         3.309885         0.245237         0.954100
 O         1.998073         0.420326         1.304959
 H        -0.454542        -0.754159         0.877264
 H        -0.707885         0.780502         0.040236
 H        -0.317939        -0.611121        -1.034408
 H         2.070076         0.732145        -1.930369
 H         1.750374         2.142141        -0.872233
 H         4.209594         1.937340        -0.460628
 H         4.313030        -0.541687        -1.976742
 H         5.386595        -0.456206        -0.608984
 H         3.526015        -2.125725         0.564721
 H         4.006432         0.412922         1.740288
