19
Iteration:  2136
 C        -0.044536        -0.033778        -0.124781
 C         1.410218         0.097576         0.050854
 C         2.245191         1.144110        -0.867420
 C         3.627293         0.985659        -0.359131
 C         4.192739        -0.364008        -1.006960
 C         3.409214        -1.120664         0.120011
 O         1.978742        -1.250483        -0.223510
 C         3.398536         0.227032         0.962099
 O         1.969078         0.372475         1.327597
 H        -0.318695        -0.705492         0.658707
 H        -0.635255         0.854734        -0.272999
 H        -0.048103        -0.620538        -1.067142
 H         2.068019         0.838329        -1.903261
 H         1.678479         2.143561        -0.678593
 H         4.246800         1.818204        -0.116106
 H         3.663864        -0.383468        -2.007823
 H         5.271866        -0.609296        -0.984335
 H         3.726679        -2.017555         0.668647
 H         4.039734         0.327319         1.830590
