19
Iteration:  2538
 C        -0.052219        -0.041409        -0.055234
 C         1.503705         0.130555        -0.017831
 C         2.143704         1.200248        -0.819152
 C         3.567674         0.967583        -0.457560
 C         4.212631        -0.442236        -0.946257
 C         3.403684        -1.099203         0.168460
 O         2.081581        -1.249188        -0.239311
 C         3.417813         0.213241         0.955204
 O         1.919623         0.366603         1.260369
 H        -0.529886        -0.690141         0.823957
 H        -0.634840         0.923356        -0.178735
 H        -0.426824        -0.715263        -0.882789
 H         2.031416         1.149922        -1.846149
 H         1.799871         2.034135        -0.265458
 H         4.262045         1.764006        -0.484808
 H         3.916361        -0.661912        -2.044502
 H         5.301541        -0.459196        -0.825460
 H         3.632874        -2.094061         0.644528
 H         3.989890         0.552784         1.874018
