19
Iteration:  2694
 C        -0.010682         0.030980        -0.123577
 C         1.504301         0.025801        -0.029695
 C         2.189348         1.114295        -0.928497
 C         3.603103         0.957620        -0.351233
 C         4.180816        -0.247872        -1.022228
 C         3.429292        -1.112658         0.159927
 O         2.012606        -1.323524        -0.110638
 C         3.305701         0.164504         0.960560
 O         1.972295         0.414228         1.333745
 H        -0.401765        -0.720236         0.594805
 H        -0.454215         1.114046         0.046370
 H        -0.306333        -0.126383        -1.234029
 H         1.940456         0.828923        -1.974662
 H         1.762852         2.089058        -0.768773
 H         4.255676         1.903944        -0.415998
 H         3.749106        -0.629490        -1.895361
 H         5.275720        -0.517801        -0.993401
 H         3.787449        -2.084794         0.357595
 H         3.934034         0.323973         1.825724
