19
Iteration:  3118
 C        -0.058593        -0.073426        -0.152977
 C         1.466603         0.105963        -0.031660
 C         2.194121         1.217559        -0.767874
 C         3.621671         0.921651        -0.367713
 C         4.171915        -0.389917        -0.984000
 C         3.444817        -1.171278         0.125374
 O         1.978361        -1.164331        -0.293295
 C         3.389340         0.120051         0.984410
 O         1.967183         0.425635         1.361466
 H        -0.321939        -0.855387         0.657751
 H        -0.754960         0.751154        -0.257504
 H        -0.250626        -0.629653        -1.123653
 H         1.919257         1.237154        -1.809141
 H         1.994749         2.160575        -0.404721
 H         4.348341         1.767614        -0.305654
 H         3.922875        -0.646378        -1.996744
 H         5.276721        -0.336145        -0.825602
 H         3.718079        -2.167855         0.590446
 H         3.981625         0.600025         1.804593
