19
Iteration:  4788charge 0 multiplicity 1
 C        -0.024706        -0.004022         0.061338
 C         1.456530         0.045193        -0.002832
 C         2.219943         1.182911        -0.921884
 C         3.607469         0.965880        -0.391642
 C         4.185795        -0.345107        -0.931969
 C         3.426454        -1.100992         0.087737
 O         2.056737        -1.259924        -0.328092
 C         3.308588         0.202104         1.051474
 O         1.910277         0.361832         1.243219
 H        -0.602506        -0.760284         0.631650
 H        -0.378197         0.988727         0.393238
 H        -0.104909        -0.302965        -0.928002
 H         2.101818         0.916674        -2.034992
 H         1.749017         2.129837        -0.677695
 H         4.335594         1.764432        -0.210433
 H         4.049273        -0.550858        -1.930902
 H         5.298374        -0.633402        -0.744058
 H         3.806277        -2.028451         0.525274
 H         3.832033         0.321267         1.987361
