19
Iteration:  1449charge 0 multiplicity 1
 C        -0.054320        -0.128952        -0.143677
 C         1.489361         0.047663         0.025632
 C         2.182185         1.170082        -0.851621
 C         3.666984         0.959677        -0.365604
 C         4.231746        -0.423090        -1.001444
 C         3.305816        -1.136850         0.120708
 O         2.006215        -1.151778        -0.277688
 C         3.381856         0.241813         0.975449
 O         1.986263         0.411632         1.367102
 H        -0.405596        -1.008953         0.458387
 H        -0.576596         0.615926         0.366848
 H        -0.420656        -0.247841        -1.153212
 H         1.939597         1.115248        -1.898992
 H         2.060068         2.237020        -0.397194
 H         4.297548         1.831731        -0.637390
 H         3.908424        -0.527083        -2.059772
 H         5.226770        -0.639515        -0.716870
 H         3.536045        -2.010107         0.655399
 H         3.836288         0.540790         1.924872
