19
Iteration:  2166charge 0 multiplicity 1
 C        -0.035638        -0.091883        -0.141951
 C         1.422632         0.089797        -0.073872
 C         2.195031         1.165215        -0.770553
 C         3.589651         0.939077        -0.458791
 C         4.237046        -0.393873        -0.934584
 C         3.440381        -1.123248         0.127866
 O         1.969763        -1.183387        -0.264914
 C         3.347801         0.178381         0.998180
 O         2.031052         0.461895         1.357835
 H        -0.268880        -0.755916         0.693173
 H        -0.730623         0.802925        -0.029020
 H        -0.351943        -0.816864        -0.953791
 H         1.916328         1.190511        -1.843712
 H         1.708754         2.141080        -0.414511
 H         4.187063         1.781669        -0.374515
 H         4.028977        -0.651091        -2.041186
 H         5.293576        -0.529453        -0.726114
 H         3.524033        -2.193085         0.539834
 H         4.042378         0.246650         1.792935
