19
Iteration:   527
 C        -0.036905        -0.017966        -0.094171
 C         1.467396         0.068663         0.064362
 C         2.126361         1.062737        -0.873165
 C         3.633481         0.983460        -0.459965
 C         4.257488        -0.334894        -0.944298
 C         3.383409        -1.100297         0.113546
 O         1.990798        -1.226493        -0.216275
 C         3.343450         0.141503         0.950208
 O         2.008788         0.399685         1.322092
 H        -0.311639        -0.942399         0.302142
 H        -0.622744         0.823139         0.517650
 H        -0.294578         0.074579        -1.149598
 H         2.118180         0.878959        -1.971925
 H         1.642553         2.046748        -0.673131
 H         4.131537         2.016228        -0.382875
 H         4.125760        -0.514423        -2.030308
 H         5.313050        -0.360769        -0.727697
 H         3.543903        -1.962490         0.655220
 H         3.987990         0.355038         1.777104
