19
Iteration:  1815
 C        -0.103326        -0.072071         0.067252
 C         1.445162         0.123283        -0.028191
 C         2.125792         1.104565        -0.960897
 C         3.579323         0.937693        -0.385342
 C         4.369404        -0.445508        -0.834644
 C         3.383026        -1.113105         0.107736
 O         2.024075        -1.154143        -0.349557
 C         3.343928         0.232729         0.905778
 O         1.965506         0.461214         1.318044
 H        -0.249091        -0.967072         0.728746
 H        -0.679528         0.765954         0.350980
 H        -0.477619        -0.570332        -0.819948
 H         1.878443         0.827492        -2.083146
 H         1.915362         2.216376        -0.775036
 H         4.092501         1.819690        -0.338063
 H         4.473421        -0.941820        -1.785828
 H         5.407529        -0.626445        -0.396119
 H         3.699203        -2.064416         0.527729
 H         4.106406         0.254511         1.714708
