19
Iteration:  4467charge 0 multiplicity 1
 C        -0.004313         0.037152        -0.150196
 C         1.454964         0.065159         0.076955
 C         2.086269         1.164607        -0.815709
 C         3.592112         0.938216        -0.440290
 C         4.229498        -0.360002        -0.941889
 C         3.403578        -1.093994         0.122833
 O         2.023335        -1.281896        -0.225144
 C         3.320066         0.165995         0.948008
 O         2.010663         0.366148         1.346754
 H        -0.630955        -0.595972         0.457276
 H        -0.412996         1.027535        -0.281413
 H        -0.218416        -0.360251        -1.168852
 H         2.018800         1.139763        -1.943717
 H         1.836906         2.238878        -0.462736
 H         4.245511         1.859676        -0.503137
 H         4.210719        -0.759783        -2.043027
 H         5.336967        -0.304278        -0.722326
 H         3.855121        -2.062592         0.423070
 H         3.948428         0.285855         1.796052
