19
Iteration:  1473
 C        -0.061556        -0.004259        -0.162862
 C         1.481982         0.118771         0.082106
 C         2.096603         1.158271        -0.884760
 C         3.608204         0.974913        -0.382604
 C         4.232649        -0.386632        -0.944563
 C         3.421154        -1.169087         0.116162
 O         2.010997        -1.254819        -0.259954
 C         3.342432         0.165388         0.967905
 O         2.030681         0.412876         1.354553
 H        -0.324071        -1.055768         0.337080
 H        -0.751966         0.649347         0.384848
 H        -0.255215        -0.021726        -1.220198
 H         1.979679         1.005374        -1.993458
 H         1.933857         2.192422        -0.585422
 H         4.335232         1.748964        -0.560759
 H         3.990768        -0.767307        -1.922433
 H         5.247338        -0.084352        -0.719300
 H         3.583214        -2.148505         0.522155
 H         3.861112         0.491029         1.836665
