19
Iteration:  3646
 C        -0.073350         0.107884        -0.107655
 C         1.481669         0.020393        -0.013530
 C         2.170957         1.094940        -0.903016
 C         3.596555         1.002025        -0.415761
 C         4.135456        -0.397884        -1.003594
 C         3.463631        -1.050181         0.213014
 O         2.104937        -1.305101        -0.252009
 C         3.347269         0.234199         1.025538
 O         1.944078         0.322269         1.342786
 H        -0.710619        -0.672806         0.394984
 H        -0.512629         1.055196         0.111814
 H        -0.343417        -0.143844        -1.120286
 H         2.111415         0.958268        -1.974846
 H         1.714560         1.986048        -0.435400
 H         4.161976         1.959382        -0.609003
 H         3.854615        -0.715160        -1.943485
 H         5.220621        -0.479933        -0.852417
 H         3.900954        -1.926079         0.686199
 H         4.077409         0.389591         1.839236
