19
Iteration:  1122
 C        -0.095283         0.035479         0.038839
 C         1.430990         0.034350         0.014981
 C         2.164430         1.057789        -0.884065
 C         3.608048         0.898581        -0.380256
 C         4.330549        -0.316066        -0.839945
 C         3.370769        -1.117030         0.085658
 O         2.011090        -1.230160        -0.416366
 C         3.335055         0.256632         0.980893
 O         1.992053         0.399648         1.289330
 H        -0.312365        -0.758614         0.671571
 H        -0.384314         1.024394         0.544575
 H        -0.521979        -0.077826        -1.002199
 H         2.167972         0.640278        -1.831758
 H         1.478161         1.954418        -0.906584
 H         4.142047         1.941934        -0.540732
 H         4.368757        -0.650467        -1.924815
 H         5.258457        -0.492404        -0.326727
 H         3.659313        -2.124285         0.396547
 H         4.080424         0.461535         1.839585
