19
Iteration:  1462charge 0 multiplicity 1
 C        -0.035277        -0.103293        -0.133501
 C         1.412469         0.135067         0.025928
 C         2.153770         1.187505        -0.780944
 C         3.625192         0.930625        -0.436505
 C         4.196941        -0.422412        -0.921899
 C         3.390863        -1.079656         0.147068
 O         1.985992        -1.198077        -0.260981
 C         3.383994         0.196662         0.945855
 O         2.018774         0.418389         1.324194
 H        -0.306125        -1.208315         0.164757
 H        -0.631649         0.730439         0.228083
 H        -0.116210        -0.058596        -1.213298
 H         2.019100         1.005866        -1.876404
 H         1.639188         2.126356        -0.565584
 H         4.178856         1.832651        -0.264891
 H         4.102352        -0.765442        -1.945443
 H         5.278027        -0.587140        -0.730463
 H         3.741949        -2.031343         0.513062
 H         4.203110         0.130133         1.616743
