19
Iteration:  2375charge 0 multiplicity 1
 C        -0.131321         0.062886         0.100881
 C         1.395855         0.066972         0.004607
 C         2.180236         1.140072        -0.924119
 C         3.600368         0.984520        -0.436819
 C         4.290320        -0.365307        -0.863498
 C         3.544329        -1.147908         0.140877
 O         2.047639        -1.270932        -0.362652
 C         3.352933         0.223511         0.925520
 O         1.895232         0.323426         1.272494
 H        -0.425318        -0.662025         0.946626
 H        -0.459868         1.101521         0.097870
 H        -0.367302        -0.439138        -0.847361
 H         2.069237         1.039977        -2.004425
 H         1.897372         2.157665        -0.586590
 H         4.169575         1.874600        -0.427736
 H         4.145339        -0.579060        -1.932211
 H         5.315808        -0.378610        -0.607580
 H         3.694745        -2.165353         0.558167
 H         3.803057         0.455984         1.955435
