19
Iteration:  2117
 C        -0.029490         0.061112        -0.071506
 C         1.463280         0.027055        -0.019436
 C         2.155187         1.108849        -0.907792
 C         3.598164         0.932899        -0.375370
 C         4.201318        -0.313526        -0.970618
 C         3.450761        -1.106390         0.143771
 O         2.065542        -1.263934        -0.246644
 C         3.318791         0.191830         1.020732
 O         1.955899         0.369260         1.301478
 H        -0.575536        -0.474461         0.739887
 H        -0.257549         1.084051         0.091495
 H        -0.578255        -0.337195        -0.880343
 H         2.105504         1.017216        -1.979509
 H         1.642960         2.002081        -0.666002
 H         4.214946         1.906396        -0.545624
 H         3.971120        -0.625941        -1.938047
 H         5.294369        -0.365379        -0.761012
 H         3.679930        -2.088211         0.387888
 H         3.988227         0.198106         1.923254
