19
Iteration:    13charge 0 multiplicity 1
 C         0.025782        -0.088772         0.096914
 C         1.454150         0.168136         0.016317
 C         2.219566         1.107789        -0.999471
 C         3.586175         0.942484        -0.506992
 C         4.250377        -0.397229        -0.822472
 C         3.323103        -1.089626         0.142758
 O         2.002013        -1.287309        -0.341111
 C         3.336603         0.308555         0.890225
 O         1.923607         0.409538         1.376948
 H        -0.103231        -0.782452         0.996189
 H        -0.504569         0.776067         0.224538
 H        -0.308994        -0.613989        -0.840071
 H         2.075943         0.778126        -1.991388
 H         1.954219         2.147699        -0.942665
 H         4.158828         1.807798        -0.577803
 H         4.166286        -0.784545        -1.855497
 H         5.241906        -0.483116        -0.540465
 H         3.677054        -1.926038         0.671841
 H         4.199489         0.538878         1.558687
