19
Iteration:  2466
 C        -0.052278         0.078246         0.032049
 C         1.454493        -0.026825        -0.020758
 C         2.097837         1.101980        -0.925075
 C         3.592112         0.953939        -0.406182
 C         4.256323        -0.329231        -0.926233
 C         3.410579        -1.156227         0.145005
 O         2.063421        -1.313497        -0.301745
 C         3.242823         0.289890         0.940615
 O         2.004724         0.366325         1.312692
 H        -0.490016        -0.778644         0.512629
 H        -0.218619         1.108929         0.472261
 H        -0.471471         0.110599        -0.984510
 H         2.267817         0.778679        -2.008142
 H         1.868938         2.196215        -0.584296
 H         4.129086         1.982479        -0.534842
 H         4.377743        -0.512572        -1.974012
 H         5.314754        -0.271679        -0.478948
 H         3.842720        -1.934459         0.734000
 H         3.983793         0.351937         1.680472
