19
Iteration:  3883charge 0 multiplicity 1
 C        -0.139081         0.033944        -0.001687
 C         1.444057         0.049219         0.014839
 C         2.153616         1.100412        -0.969354
 C         3.651796         1.019562        -0.352622
 C         4.330818        -0.270270        -0.887689
 C         3.376281        -1.129267         0.009476
 O         1.973291        -1.280297        -0.240903
 C         3.378365         0.163199         0.915193
 O         1.962249         0.333807         1.344106
 H        -0.451243        -0.596350         0.951809
 H        -0.402685         1.120190         0.049775
 H        -0.432965        -0.452334        -0.933695
 H         2.228797         0.720284        -1.981586
 H         1.811887         2.041708        -0.856739
 H         4.220346         1.988614        -0.209299
 H         4.235690        -0.492916        -2.021902
 H         5.357813        -0.182473        -0.467841
 H         3.665563        -2.078056         0.500209
 H         4.165129         0.296292         1.665304
