19
Iteration:   498charge 0 multiplicity 1
 C        -0.078269        -0.089736        -0.076503
 C         1.432178         0.110188         0.018975
 C         2.203915         1.199717        -0.864101
 C         3.626779         0.923115        -0.460082
 C         4.153022        -0.406554        -0.951719
 C         3.415471        -1.185420         0.150460
 O         2.074587        -1.216009        -0.305141
 C         3.361202         0.262860         1.016572
 O         1.985534         0.414406         1.351036
 H        -0.346020        -1.048712         0.536285
 H        -0.659531         0.545881         0.497601
 H        -0.321286        -0.197706        -1.192386
 H         2.047145         1.218972        -1.976490
 H         1.842433         2.172966        -0.555211
 H         4.271170         1.818579        -0.484174
 H         3.797456        -0.631379        -1.949305
 H         5.268354        -0.523239        -0.976398
 H         3.602443        -2.201530         0.620319
 H         3.890457         0.730029         1.828951
