19
Iteration:  4671charge 0 multiplicity 1
 C        -0.111227        -0.036599         0.054748
 C         1.492709         0.074354        -0.017462
 C         2.163497         1.070489        -0.947368
 C         3.638925         0.939166        -0.401164
 C         4.326926        -0.313891        -0.874496
 C         3.374584        -1.129289         0.038159
 O         1.988512        -1.133719        -0.323028
 C         3.352306         0.159888         1.042537
 O         1.926212         0.351472         1.263638
 H        -0.399037        -0.610092         1.028987
 H        -0.259357         1.042469         0.311874
 H        -0.457310        -0.490791        -0.855107
 H         2.103664         0.836001        -1.989303
 H         1.897828         2.152411        -0.739704
 H         3.975242         1.976001        -0.380874
 H         4.421254        -0.553062        -1.932400
 H         5.322126        -0.361572        -0.549835
 H         3.728072        -2.083094         0.432606
 H         3.897378         0.264780         1.963103
