19
Iteration:  2995charge 0 multiplicity 1
 C        -0.020758        -0.106910        -0.129924
 C         1.438186         0.156695         0.049684
 C         2.109484         1.154371        -0.825850
 C         3.627175         0.883900        -0.359830
 C         4.232909        -0.406863        -0.943017
 C         3.387374        -1.119661         0.211772
 O         2.007105        -1.180515        -0.411937
 C         3.345078         0.228066         0.989194
 O         2.013038         0.411064         1.349381
 H        -0.479322        -0.855289         0.461988
 H        -0.652655         0.786347         0.217150
 H        -0.113788        -0.215526        -1.212113
 H         1.879244         1.081843        -1.892926
 H         1.831503         2.112077        -0.501822
 H         4.264653         1.812365        -0.416448
 H         4.038956        -0.624824        -2.000950
 H         5.246758        -0.611538        -0.744633
 H         3.833757        -2.130710         0.573121
 H         4.116740         0.311547         1.699479
