19
Iteration:  2059charge 0 multiplicity 1
 C        -0.063336        -0.096907         0.064212
 C         1.399269         0.141257         0.041620
 C         2.231435         1.109737        -0.969491
 C         3.616388         0.958480        -0.370825
 C         4.272404        -0.374869        -0.862591
 C         3.403346        -1.156842         0.079841
 O         2.024100        -1.220007        -0.357796
 C         3.291443         0.247999         0.965929
 O         1.966699         0.445776         1.297837
 H        -0.199492        -1.006901         0.553205
 H        -0.504039         0.707869         0.697996
 H        -0.311442         0.174660        -0.990041
 H         2.150604         0.589078        -1.930522
 H         1.665849         2.136625        -0.895158
 H         4.251974         1.834398        -0.341238
 H         4.185579        -0.737528        -1.979412
 H         5.307491        -0.624515        -0.562197
 H         3.650865        -2.259238         0.260896
 H         3.858871         0.459951         1.844466
