19
Iteration:  3218
 C        -0.002111        -0.042779         0.004496
 C         1.479471         0.051590        -0.056365
 C         2.188186         1.163956        -0.891784
 C         3.649287         0.916190        -0.329264
 C         4.219018        -0.392140        -0.969206
 C         3.400071        -1.084504         0.154910
 O         2.029442        -1.152622        -0.305460
 C         3.318428         0.138530         0.967548
 O         1.920174         0.413380         1.272711
 H        -0.245006        -1.099527         0.388839
 H        -0.468324         0.754003         0.662945
 H        -0.494586         0.038650        -1.034487
 H         2.158356         1.149140        -1.957318
 H         1.683829         1.992169        -0.443494
 H         4.057063         1.895733        -0.157933
 H         3.775322        -0.615194        -1.923045
 H         5.364965        -0.608931        -0.891640
 H         3.769392        -2.081712         0.442443
 H         3.900669         0.224264         1.954341
