19
Iteration:  2793
 C        -0.087288         0.016858         0.032526
 C         1.402957         0.048246        -0.053956
 C         2.228874         1.099387        -0.939005
 C         3.664397         0.925961        -0.403220
 C         4.265426        -0.362780        -0.914505
 C         3.435035        -1.076311         0.134386
 O         2.033903        -1.216796        -0.268018
 C         3.320509         0.218680         0.982985
 O         1.914976         0.351595         1.279980
 H        -0.268941        -0.804062         0.778480
 H        -0.378508         1.049708         0.254540
 H        -0.566544        -0.127336        -0.966132
 H         2.162544         0.810456        -1.977353
 H         1.792404         2.029018        -0.800864
 H         4.211898         1.870961        -0.225914
 H         3.918715        -0.589537        -1.881475
 H         5.376017        -0.414506        -0.744718
 H         3.722165        -2.027817         0.442930
 H         3.811020         0.430727         1.941503
