19
Iteration:  2268charge 0 multiplicity 1
 C        -0.031265        -0.054785        -0.081287
 C         1.394655         0.021187         0.039990
 C         2.180032         1.191454        -0.848056
 C         3.606231         0.972763        -0.423543
 C         4.212366        -0.433279        -0.945857
 C         3.443658        -1.092753         0.189418
 O         2.051142        -1.152558        -0.299826
 C         3.342704         0.190828         0.908837
 O         1.963161         0.370779         1.324470
 H        -0.455169        -0.965954         0.382659
 H        -0.536911         0.722244         0.404716
 H        -0.183777         0.065824        -1.114401
 H         2.015437         0.988405        -1.948815
 H         1.736937         2.200599        -0.512709
 H         4.312762         1.795608        -0.227145
 H         3.928579        -1.023620        -1.825832
 H         5.344329        -0.414245        -0.991976
 H         3.554270        -2.057448         0.639904
 H         3.997332         0.481264         1.809803
