19
Iteration:   807
 C        -0.139401         0.026547        -0.001341
 C         1.387699        -0.009013        -0.022805
 C         2.212754         1.141719        -0.935897
 C         3.668169         1.034849        -0.405685
 C         4.308458        -0.389548        -0.966259
 C         3.426889        -1.073189         0.123044
 O         2.041939        -1.276482        -0.212336
 C         3.357339         0.214421         0.998424
 O         1.927165         0.362939         1.291375
 H        -0.615667        -0.436197         0.836757
 H        -0.401595         1.208126        -0.148025
 H        -0.448245        -0.496059        -0.926043
 H         2.142786         0.891643        -1.937661
 H         1.698333         2.153342        -0.875305
 H         4.121389         1.939553        -0.339492
 H         4.097932        -0.642114        -2.028886
 H         5.317425        -0.666689        -0.770153
 H         3.743166        -2.053638         0.613526
 H         3.899578         0.194395         1.924106
