19
Iteration:   428charge 0 multiplicity 1
 C        -0.132414         0.093870         0.043081
 C         1.453169         0.001553         0.012215
 C         2.057120         1.000331        -0.947717
 C         3.629096         0.949808        -0.310328
 C         4.377030        -0.335334        -0.957539
 C         3.467086        -1.138377         0.037634
 O         2.111625        -1.166198        -0.302665
 C         3.240286         0.197750         0.933354
 O         1.944918         0.355962         1.349957
 H        -0.532884        -0.195819         0.940698
 H        -0.425890         1.249421         0.078286
 H        -0.557544        -0.361145        -0.799233
 H         1.938662         0.690740        -1.987824
 H         1.722495         2.066674        -0.856762
 H         4.057650         1.994148        -0.231857
 H         4.453709        -0.515463        -2.045436
 H         5.323815        -0.606117        -0.554671
 H         3.748331        -2.089845         0.315006
 H         3.994253         0.319372         1.741718
