19
Iteration:  1160charge 0 multiplicity 1
 C        -0.055777         0.072992        -0.095826
 C         1.471340         0.052014        -0.036832
 C         2.174919         1.171290        -0.858552
 C         3.596716         0.999748        -0.390770
 C         4.175950        -0.377191        -0.980994
 C         3.388617        -1.090539         0.108476
 O         2.046476        -1.327807        -0.178461
 C         3.385826         0.257508         1.041641
 O         1.959604         0.274481         1.277284
 H        -0.388073        -0.602467         0.761536
 H        -0.473104         1.083169        -0.056617
 H        -0.545354        -0.250365        -0.988902
 H         2.204736         0.820121        -1.978275
 H         1.903851         2.234688        -0.820315
 H         4.309100         1.745965        -0.207031
 H         4.026001        -0.525247        -2.040085
 H         5.289472        -0.249669        -0.961350
 H         3.776275        -2.127071         0.411596
 H         3.869979         0.513411         1.942097
