19
Iteration:  2450charge 0 multiplicity 1
 C        -0.065946         0.067173        -0.073256
 C         1.467558         0.020515         0.018819
 C         2.136051         1.103037        -0.843856
 C         3.593964         0.969837        -0.437664
 C         4.228993        -0.345798        -0.927827
 C         3.436804        -1.069702         0.171546
 O         2.051526        -1.327213        -0.269588
 C         3.416032         0.240859         0.973175
 O         1.928008         0.375839         1.255153
 H        -0.491493        -0.889519         0.433695
 H        -0.248800         0.949166         0.530574
 H        -0.286851         0.092219        -1.152763
 H         1.789759         1.061250        -1.823669
 H         1.576495         1.889906        -0.451539
 H         4.149439         1.865992        -0.508325
 H         3.893906        -0.796004        -1.913894
 H         5.275166        -0.443371        -0.773363
 H         3.826125        -2.075330         0.506737
 H         4.006482         0.560331         1.895328
