19
Iteration:  1175charge 0 multiplicity 1
 C        -0.014628        -0.042825        -0.123436
 C         1.469102         0.032148        -0.003910
 C         2.179027         1.170246        -0.853984
 C         3.690847         1.001965        -0.345577
 C         4.142709        -0.372391        -0.988712
 C         3.411648        -1.144046         0.125945
 O         1.987706        -1.269236        -0.262877
 C         3.337402         0.259458         1.005451
 O         1.993178         0.387735         1.329121
 H        -0.525895        -0.556920         0.650168
 H        -0.402477         1.065711        -0.074525
 H        -0.184480        -0.560836        -1.108602
 H         1.994858         1.163606        -1.863754
 H         1.617069         2.012594        -0.409291
 H         4.220833         1.987355        -0.599763
 H         3.789487        -0.667117        -1.999970
 H         5.151642        -0.687789        -0.808577
 H         3.759748        -2.014300         0.565695
 H         4.016421         0.332756         1.887228
