19
Iteration:  1530
 C        -0.035774         0.069436         0.085575
 C         1.388050         0.077928        -0.073687
 C         2.155793         1.084432        -0.974037
 C         3.595129         0.923026        -0.307867
 C         4.295445        -0.334145        -0.858525
 C         3.406901        -1.104780         0.054121
 O         2.063260        -1.244970        -0.299112
 C         3.308856         0.152990         0.943204
 O         1.952733         0.378489         1.283555
 H        -0.471190        -0.606953         0.851649
 H        -0.417571         1.126550         0.341594
 H        -0.647198        -0.282896        -0.776099
 H         2.101947         0.798059        -2.058774
 H         1.877295         2.078329        -0.920496
 H         4.246789         1.750192        -0.315723
 H         4.412049        -0.726296        -1.824906
 H         5.315119        -0.185042        -0.459760
 H         3.810430        -2.130000         0.254729
 H         3.864202         0.439725         1.813179
