19
Iteration:  2937
 C        -0.089524         0.062796        -0.068604
 C         1.488357         0.028673        -0.013252
 C         2.170442         1.039461        -0.866258
 C         3.591709         1.009641        -0.347890
 C         4.236295        -0.307118        -0.936952
 C         3.436942        -1.130806         0.086471
 O         1.991238        -1.251024        -0.304631
 C         3.326703         0.191264         0.997037
 O         1.988250         0.387181         1.359468
 H        -0.558857        -0.498627         0.759155
 H        -0.227161         1.080789        -0.242349
 H        -0.545699        -0.429891        -0.933236
 H         2.269738         0.740451        -1.877196
 H         1.794004         1.987692        -0.779088
 H         4.119623         1.952228        -0.464891
 H         4.141305        -0.509872        -2.061167
 H         5.285478        -0.486423        -0.612832
 H         3.848453        -2.112752         0.245969
 H         3.990064         0.198038         1.970928
