19
Iteration:  3348
 C        -0.127570        -0.107253        -0.051166
 C         1.427335         0.144832         0.054971
 C         2.168347         1.180813        -0.902099
 C         3.654523         0.942091        -0.316027
 C         4.288710        -0.350062        -0.936105
 C         3.329223        -1.148590         0.153206
 O         2.018156        -1.199174        -0.364059
 C         3.415939         0.162848         0.962368
 O         1.992889         0.430902         1.300989
 H        -0.427423        -0.640730         0.829715
 H        -0.759385         0.778410        -0.019154
 H        -0.254754        -0.666651        -1.002630
 H         1.896696         0.910262        -1.902842
 H         1.654017         2.087855        -0.799082
 H         4.220420         1.863232        -0.314130
 H         4.218313        -0.745963        -1.924945
 H         5.430276        -0.433216        -0.818012
 H         3.562222        -2.147498         0.670286
 H         4.128266         0.223857         1.792115
