19
Iteration:  2344charge 0 multiplicity 1
 C        -0.056147         0.119007         0.061992
 C         1.426992        -0.033868         0.008371
 C         2.175432         1.020726        -0.989578
 C         3.551855         0.982948        -0.366181
 C         4.282294        -0.300688        -0.890710
 C         3.497526        -1.139892         0.105754
 O         2.009065        -1.195746        -0.373666
 C         3.356361         0.196621         0.960414
 O         1.912021         0.329527         1.347434
 H        -0.445926        -0.285449         1.071624
 H        -0.280180         1.151025        -0.104043
 H        -0.447155        -0.311853        -0.838353
 H         2.161164         0.558310        -2.030051
 H         1.621257         2.018387        -0.711992
 H         4.004953         1.972012        -0.388894
 H         4.245204        -0.437683        -1.974735
 H         5.378876        -0.307677        -0.598032
 H         3.878550        -2.144966         0.484907
 H         4.052720         0.331783         1.910881
