19
Iteration:  2485charge 0 multiplicity 1
 C        -0.058434         0.025290         0.094772
 C         1.422130         0.099942        -0.020727
 C         2.118325         0.995157        -1.004855
 C         3.616477         0.993607        -0.430768
 C         4.358590        -0.331148        -0.861045
 C         3.426693        -1.062080         0.075792
 O         2.004258        -1.207178        -0.290659
 C         3.376368         0.162690         1.003810
 O         1.930543         0.348770         1.274330
 H        -0.487849        -0.795781         0.768927
 H        -0.630536         0.927499         0.372476
 H        -0.698597        -0.081509        -0.765519
 H         2.104551         0.490845        -1.973343
 H         1.876066         2.036458        -0.911577
 H         4.217633         1.881456        -0.203683
 H         4.272019        -0.522625        -1.915260
 H         5.393913        -0.263371        -0.571344
 H         3.619438        -2.086994         0.363810
 H         3.977258         0.373938         1.893848
