19
Iteration:  2499
 C        -0.124251        -0.054004         0.112348
 C         1.394640         0.116903         0.028389
 C         2.187849         1.025920        -0.968256
 C         3.683981         0.912883        -0.319799
 C         4.342296        -0.280932        -0.949317
 C         3.364233        -1.132662         0.099089
 O         2.002464        -1.177415        -0.351633
 C         3.295952         0.215686         0.989434
 O         1.982646         0.408676         1.268852
 H        -0.233260        -0.738306         0.899206
 H        -0.526971         0.935760         0.425773
 H        -0.264523        -0.484167        -0.871387
 H         2.131542         0.531901        -2.023753
 H         1.712297         2.048635        -1.279140
 H         4.131604         1.952193        -0.545894
 H         4.325250        -0.459755        -1.996046
 H         5.385958        -0.482550        -0.551845
 H         3.727124        -2.040195         0.541770
 H         3.832013         0.222323         1.906892
