19
Iteration:  1038
 C        -0.071392         0.095947        -0.210679
 C         1.466670         0.030509         0.060026
 C         2.169787         1.096361        -0.871131
 C         3.545008         0.931794        -0.423604
 C         4.282954        -0.326590        -1.013003
 C         3.454278        -1.142763         0.077370
 O         2.020695        -1.222651        -0.121661
 C         3.344454         0.246776         0.982592
 O         1.935633         0.328148         1.367951
 H        -0.444400        -0.668730         0.577925
 H        -0.397187         1.046904         0.111705
 H        -0.412991        -0.239736        -1.230578
 H         2.002507         0.773571        -1.979499
 H         1.696133         2.053193        -0.638952
 H         4.081616         1.787777        -0.257793
 H         4.181047        -0.693335        -2.030426
 H         5.356026        -0.336440        -0.715898
 H         3.970321        -2.163522         0.262338
 H         4.084077         0.394321         1.834344
