19
Iteration:   926
 C        -0.052357         0.052924        -0.123421
 C         1.477309         0.106308         0.072174
 C         2.149200         1.119745        -0.892227
 C         3.594648         0.957136        -0.471512
 C         4.255202        -0.393570        -1.003131
 C         3.494687        -1.104561         0.180978
 O         2.076334        -1.306341        -0.137710
 C         3.282667         0.232016         0.931627
 O         1.881387         0.343209         1.335459
 H        -0.546314        -0.709195         0.310590
 H        -0.478376         1.122108         0.146373
 H        -0.357237         0.041599        -1.172113
 H         2.041905         0.758237        -1.862748
 H         1.695394         2.215935        -0.950108
 H         4.212497         1.808564        -0.295851
 H         4.052197        -0.501721        -2.110307
 H         5.305947        -0.534035        -0.896637
 H         4.080880        -1.993479         0.645554
 H         3.973788         0.382996         1.781689
