19
Iteration:  4552
 C        -0.101607         0.005725         0.028606
 C         1.392773         0.110362         0.078809
 C         2.142224         1.093510        -0.929433
 C         3.648474         0.950652        -0.422130
 C         4.338742        -0.328143        -0.842409
 C         3.436515        -1.129279         0.166432
 O         2.022525        -1.192826        -0.355227
 C         3.315478         0.162626         0.895714
 O         1.963052         0.358687         1.256597
 H        -0.415229        -0.936289         0.634442
 H        -0.472891         0.847027         0.645034
 H        -0.430035        -0.143108        -0.999093
 H         2.011888         0.990258        -1.986572
 H         1.626647         2.128429        -0.713255
 H         4.257566         1.871154        -0.486685
 H         4.499004        -0.692805        -1.953383
 H         5.349113        -0.331502        -0.475666
 H         3.629272        -2.152495         0.443963
 H         3.825817         0.208543         1.842589
