19
Iteration:  2841charge 0 multiplicity 1
 C        -0.087616         0.001811        -0.173427
 C         1.384498         0.073834         0.035880
 C         2.144291         1.069104        -0.855822
 C         3.670402         0.961377        -0.412535
 C         4.255963        -0.378084        -0.998738
 C         3.431677        -1.126848         0.117991
 O         2.021323        -1.212134        -0.190673
 C         3.362843         0.249455         1.012883
 O         1.979668         0.364676         1.367118
 H        -0.421673        -1.043221         0.129029
 H        -0.546615         0.923706         0.238391
 H        -0.264470         0.128137        -1.273431
 H         2.034355         0.900461        -1.974540
 H         1.740278         2.163340        -0.621458
 H         4.097424         1.961267        -0.511133
 H         4.024975        -0.569293        -2.099393
 H         5.291549        -0.504427        -0.851826
 H         3.697896        -2.148100         0.614726
 H         4.108395         0.365180         1.906014
