19
Iteration:  3942
 C        -0.083746        -0.097958        -0.098118
 C         1.399251         0.109830        -0.012833
 C         2.217344         1.170145        -0.800615
 C         3.647404         0.981909        -0.434754
 C         4.166564        -0.379366        -0.958090
 C         3.392060        -1.119426         0.121160
 O         2.027845        -1.188758        -0.248624
 C         3.388795         0.211621         1.029009
 O         2.015693         0.348197         1.300806
 H        -0.252403        -0.899220         0.535568
 H        -0.667688         0.796749         0.136303
 H        -0.158215        -0.420239        -1.196484
 H         1.899407         1.162102        -1.853460
 H         1.693750         2.196812        -0.496079
 H         4.285423         1.884826        -0.529945
 H         3.942980        -0.788902        -1.933805
 H         5.339233        -0.472503        -1.005937
 H         3.477834        -2.134700         0.469653
 H         3.936168         0.431562         1.978709
