19
Iteration:  2129charge 0 multiplicity 1
 C        -0.048148         0.004690        -0.115628
 C         1.454915         0.086626        -0.021483
 C         2.194585         1.114631        -0.836769
 C         3.614969         0.987526        -0.335814
 C         4.205435        -0.357522        -0.992232
 C         3.426754        -1.128315         0.124372
 O         1.984415        -1.244753        -0.210736
 C         3.323839         0.171794         0.941480
 O         1.982890         0.365314         1.319550
 H        -0.254835        -0.591780         0.830109
 H        -0.553677         0.952738        -0.188731
 H        -0.171464        -0.458638        -1.071210
 H         2.101305         0.740495        -1.857867
 H         1.906326         2.080935        -0.688015
 H         4.177420         2.023199        -0.232507
 H         3.774443        -0.601183        -1.914588
 H         5.297695        -0.373506        -1.132240
 H         3.903057        -1.918946         0.640294
 H         3.993919         0.488420         1.795483
