19
Iteration:  4981
 C        -0.097583        -0.048372        -0.022937
 C         1.473150         0.059317        -0.047545
 C         2.189610         1.118526        -0.869071
 C         3.633755         0.947736        -0.408023
 C         4.264201        -0.333234        -0.910582
 C         3.428068        -1.204157         0.114858
 O         2.003233        -1.167940        -0.332301
 C         3.306131         0.199508         0.981598
 O         1.941782         0.401777         1.353641
 H        -0.411676        -0.853845         0.636163
 H        -0.380442         0.972513         0.258822
 H        -0.682998        -0.251264        -0.873012
 H         2.148712         1.192457        -1.969386
 H         1.952393         2.087587        -0.542821
 H         4.315816         1.776827        -0.249242
 H         4.274386        -0.617991        -2.082576
 H         5.309274        -0.384933        -0.579301
 H         3.674214        -2.257074         0.318562
 H         4.030641         0.548915         1.765791
