19
Iteration:   492charge 0 multiplicity 1
 C        -0.082702        -0.080445        -0.036881
 C         1.393960         0.101046         0.001416
 C         2.191713         1.193399        -0.858693
 C         3.628457         0.912272        -0.416976
 C         4.221992        -0.367433        -1.022453
 C         3.459792        -1.202169         0.209765
 O         2.073504        -1.180774        -0.276572
 C         3.332462         0.176964         0.975876
 O         1.957659         0.447999         1.287678
 H        -0.287692        -1.011731         0.426852
 H        -0.739731         0.750863         0.482398
 H        -0.319938        -0.284862        -1.044243
 H         1.930135         1.169170        -1.901204
 H         1.860681         2.179195        -0.438268
 H         4.336829         1.741711        -0.491299
 H         3.801765        -0.686365        -2.011453
 H         5.303448        -0.464837        -1.040209
 H         3.758558        -2.135958         0.738497
 H         3.834359         0.493821         1.960477
