19
Iteration:  3326charge 0 multiplicity 1
 C        -0.030754        -0.018775         0.120370
 C         1.497828         0.067337        -0.097289
 C         2.255138         1.098475        -0.958508
 C         3.641315         0.926338        -0.324176
 C         4.249259        -0.317358        -0.864055
 C         3.393500        -1.093683         0.030608
 O         1.998923        -1.229529        -0.344951
 C         3.253407         0.191513         1.008875
 O         1.896928         0.388943         1.280614
 H        -0.205616        -0.448208         1.105877
 H        -0.519380         0.953357         0.121958
 H        -0.502993        -0.565373        -0.709233
 H         2.133698         0.995441        -2.004101
 H         1.752987         1.993835        -0.723368
 H         4.250585         1.819945        -0.398540
 H         4.274250        -0.498946        -1.934799
 H         5.342266        -0.442674        -0.611885
 H         3.879958        -2.063368         0.343480
 H         3.861854         0.285830         1.929785
