19
Iteration:  3308charge 0 multiplicity 1
 C        -0.091144         0.074120         0.069929
 C         1.427991         0.014447        -0.083122
 C         2.146365         1.092308        -0.911131
 C         3.643214         1.061084        -0.384203
 C         4.349065        -0.310853        -0.914103
 C         3.370121        -1.132654         0.170763
 O         2.021110        -1.263985        -0.341707
 C         3.331226         0.185182         1.005111
 O         1.948364         0.270245         1.245734
 H        -0.208298        -0.449399         1.021971
 H        -0.335035         1.216634         0.079727
 H        -0.819898        -0.271209        -0.739492
 H         2.265653         0.847637        -1.977823
 H         1.872157         2.189705        -0.906708
 H         4.162434         2.008921        -0.211167
 H         4.223572        -0.475286        -1.973921
 H         5.461584        -0.401915        -0.608578
 H         3.615977        -2.066261         0.578822
 H         3.848124         0.315557         1.912627
