19
Iteration:  2054
 C        -0.058365        -0.073546         0.038981
 C         1.414990         0.120210         0.038973
 C         2.223037         1.122389        -0.921591
 C         3.610319         0.953031        -0.377733
 C         4.256003        -0.400561        -0.862793
 C         3.350768        -1.151675         0.074112
 O         2.015513        -1.242985        -0.350061
 C         3.341879         0.286161         0.953805
 O         1.942990         0.458069         1.291244
 H        -0.057962        -1.157589         0.475305
 H        -0.482041         0.646332         0.732753
 H        -0.299147        -0.004393        -1.017802
 H         2.224458         0.668444        -1.945210
 H         1.774636         2.098540        -0.900623
 H         4.362978         1.765509        -0.277469
 H         4.112502        -0.598899        -1.908400
 H         5.357569        -0.523105        -0.745774
 H         3.780470        -2.133931         0.382849
 H         3.942238         0.359525         1.903147
