19
Iteration:  1860
 C        -0.029217         0.033425        -0.119388
 C         1.473449         0.047703         0.000628
 C         2.099010         1.101503        -0.922364
 C         3.628164         1.022656        -0.364178
 C         4.222746        -0.425284        -1.026970
 C         3.471093        -1.079260         0.162767
 O         2.048227        -1.314012        -0.114919
 C         3.271572         0.229861         0.976145
 O         1.946555         0.371937         1.299048
 H        -0.600636        -0.855014         0.350462
 H        -0.193618         0.934526         0.422590
 H        -0.337480         0.110691        -1.122079
 H         2.344569         1.012815        -2.012967
 H         1.614005         2.142706        -0.824030
 H         4.269322         1.869918        -0.347135
 H         3.870531        -0.454418        -2.086037
 H         5.329765        -0.501647        -1.102464
 H         3.858027        -2.012456         0.632765
 H         4.006953         0.479084         1.756747
