19
Iteration:   887
 C         0.036254        -0.000268        -0.052823
 C         1.433785        -0.001695         0.003720
 C         2.140390         1.128382        -0.924362
 C         3.623970         0.995377        -0.374746
 C         4.209833        -0.362928        -0.909464
 C         3.408990        -1.137602         0.161321
 O         2.007462        -1.317711        -0.250348
 C         3.322694         0.247377         0.934605
 O         1.969035         0.474821         1.274055
 H        -0.311824        -0.933939         0.532335
 H        -0.336653         0.897409         0.406475
 H        -0.307213         0.031382        -1.132917
 H         1.940270         0.714680        -1.985272
 H         1.683243         2.068025        -0.841582
 H         4.252938         1.928762        -0.403851
 H         4.082073        -0.722422        -1.927729
 H         5.307232        -0.384355        -0.596939
 H         3.712176        -2.034554         0.723278
 H         3.963537         0.325146         1.872198
