19
Iteration:   774
 C         0.023543         0.049754        -0.153900
 C         1.483268        -0.008280         0.032188
 C         2.090587         1.089369        -0.895981
 C         3.553645         1.014031        -0.430587
 C         4.205283        -0.348025        -0.998440
 C         3.416129        -1.158638         0.141759
 O         2.017070        -1.234800        -0.198530
 C         3.372198         0.175646         1.069467
 O         1.982640         0.417604         1.346001
 H        -0.566887        -0.582943         0.513322
 H        -0.349079         1.169824        -0.043410
 H        -0.073772        -0.338140        -1.165565
 H         2.031814         0.710150        -1.853576
 H         1.778410         2.146148        -0.850066
 H         3.995798         1.926119        -0.580035
 H         4.039026        -0.675157        -2.049867
 H         5.252965        -0.344863        -0.776479
 H         3.834472        -2.139103         0.472068
 H         4.047080         0.263075         1.893819
