19
Iteration:   739charge 0 multiplicity 1
 C        -0.119742        -0.117298         0.010577
 C         1.462311         0.069790         0.007844
 C         2.269375         1.092415        -0.815037
 C         3.682294         0.959730        -0.429289
 C         4.263306        -0.415754        -0.952636
 C         3.408764        -1.084626         0.220694
 O         1.962614        -1.235352        -0.362257
 C         3.334285         0.299811         0.990505
 O         1.955538         0.438184         1.238239
 H        -0.420922        -1.125498         0.627351
 H        -0.667418         0.753487         0.455088
 H        -0.645165        -0.129932        -0.936624
 H         2.216526         1.014938        -1.915941
 H         1.987435         2.164144        -0.548790
 H         4.171356         1.881438        -0.852599
 H         4.064872        -0.626156        -1.993380
 H         5.354030        -0.433923        -0.806981
 H         3.454302        -2.053435         0.712609
 H         3.911215         0.488774         1.933579
