19
Iteration:  4816
 C        -0.089905         0.075877         0.047218
 C         1.405753         0.022005        -0.060103
 C         2.164002         1.051800        -0.930303
 C         3.568575         0.928080        -0.372314
 C         4.376826        -0.307354        -0.888550
 C         3.416461        -1.093668         0.096893
 O         2.009062        -1.192659        -0.349577
 C         3.345223         0.195401         0.925377
 O         1.932336         0.340494         1.377179
 H        -0.410385        -0.697345         0.710116
 H        -0.395063         1.130220         0.272268
 H        -0.341414        -0.434892        -0.979503
 H         2.114892         0.942424        -2.022735
 H         1.661268         1.997119        -0.687089
 H         4.210662         1.783950        -0.206499
 H         4.374960        -0.453424        -2.061725
 H         5.418608        -0.506515        -0.652209
 H         3.672472        -1.972814         0.712139
 H         4.105616         0.206930         1.738117
