19
Iteration:  4447charge 0 multiplicity 1
 C        -0.088558         0.003739        -0.066587
 C         1.460006         0.084794        -0.040816
 C         2.212827         1.121054        -0.862264
 C         3.613699         0.963523        -0.338813
 C         4.199632        -0.384424        -0.950411
 C         3.441375        -1.148561         0.143899
 O         2.029688        -1.208803        -0.295407
 C         3.402494         0.254151         1.018404
 O         1.937198         0.339670         1.297162
 H        -0.351754        -0.615487         0.807266
 H        -0.458469         1.068229        -0.027084
 H        -0.555916        -0.439645        -1.076401
 H         1.989052         0.887613        -2.020133
 H         1.596059         2.016423        -0.508740
 H         4.182521         1.943980        -0.389620
 H         3.922562        -0.562077        -1.986809
 H         5.329628        -0.557765        -0.883699
 H         3.616940        -2.250081         0.502753
 H         4.086519         0.510064         1.800455
