19
Iteration:  1003charge 0 multiplicity 1
 C        -0.043777        -0.003517         0.005596
 C         1.481320         0.020742        -0.048118
 C         2.182379         1.078483        -0.914642
 C         3.600916         1.000319        -0.347447
 C         4.269144        -0.353609        -0.887754
 C         3.392045        -1.105018         0.147523
 O         2.011573        -1.244034        -0.349433
 C         3.325958         0.231138         0.956437
 O         1.954670         0.392476         1.307371
 H        -0.299637        -0.435548         0.915669
 H        -0.517929         1.034148         0.018289
 H        -0.650527        -0.480425        -0.783898
 H         2.216608         0.825157        -1.961916
 H         1.727376         2.153911        -0.891239
 H         4.237457         1.859472        -0.327424
 H         4.067441        -0.825805        -1.896262
 H         5.299324        -0.505713        -0.624051
 H         3.628883        -2.163567         0.550445
 H         4.057402         0.567319         1.816392
