19
Iteration:  3122
 C        -0.054273        -0.074859        -0.137869
 C         1.487169         0.101374        -0.041197
 C         2.198611         1.188413        -0.760880
 C         3.631574         0.927583        -0.369093
 C         4.177363        -0.373282        -0.997472
 C         3.433735        -1.155543         0.153252
 O         1.978635        -1.167758        -0.295145
 C         3.374048         0.138786         0.992024
 O         1.948000         0.396418         1.347103
 H        -0.240174        -0.765340         0.638081
 H        -0.713257         0.780930        -0.261525
 H        -0.370500        -0.597628        -1.035858
 H         2.003368         1.193214        -1.855767
 H         1.976985         2.291317        -0.434709
 H         4.443758         1.609219        -0.296299
 H         3.838718        -0.473653        -2.026202
 H         5.250397        -0.427513        -0.872353
 H         3.683443        -2.063663         0.583333
 H         4.042860         0.591791         1.752724
