19
Iteration:  3356charge 0 multiplicity 1
 C        -0.151790        -0.107540        -0.104843
 C         1.490769         0.143635         0.014769
 C         2.120658         1.139042        -0.893954
 C         3.658476         0.915381        -0.394236
 C         4.271590        -0.402255        -0.927671
 C         3.362314        -1.093952         0.141808
 O         2.000623        -1.128659        -0.326656
 C         3.411866         0.178631         1.006222
 O         2.010421         0.385131         1.381856
 H        -0.451082        -0.816365         0.693555
 H        -0.773482         0.725956        -0.199588
 H        -0.310303        -0.546286        -1.064880
 H         1.917407         1.030476        -2.043772
 H         1.636434         2.175853        -0.547972
 H         4.351078         1.762067        -0.513160
 H         4.076584        -0.692056        -2.002951
 H         5.289705        -0.378777        -0.700505
 H         3.735946        -2.074143         0.578368
 H         4.108491         0.266572         1.901179
