19
Iteration:  2577
 C        -0.017226         0.024692        -0.147700
 C         1.426139         0.059859         0.052375
 C         2.176349         1.021554        -0.881531
 C         3.598493         1.008304        -0.397129
 C         4.155956        -0.314558        -0.963511
 C         3.368755        -1.134625         0.108627
 O         2.020367        -1.249120        -0.204008
 C         3.436990         0.215750         1.012457
 O         1.993472         0.384665         1.339768
 H        -0.410558        -0.563565         0.629741
 H        -0.477649         0.998366        -0.160750
 H        -0.136257        -0.346165        -1.179777
 H         1.947014         0.761975        -1.971910
 H         1.609461         2.011009        -0.794519
 H         3.982767         2.062750        -0.446747
 H         3.934649        -0.666040        -1.986246
 H         5.240733        -0.402941        -0.773240
 H         3.824647        -2.085925         0.435342
 H         4.241182         0.316014         1.766811
