19
Iteration:  2542charge 0 multiplicity 1
 C        -0.109839        -0.030537        -0.093422
 C         1.515698         0.128119         0.008602
 C         2.139737         1.171116        -0.796479
 C         3.568663         0.972002        -0.471834
 C         4.194933        -0.475916        -0.959541
 C         3.419413        -1.100638         0.157251
 O         2.108985        -1.252055        -0.231370
 C         3.423156         0.222494         0.954142
 O         1.891596         0.357934         1.293029
 H        -0.490149        -0.599112         0.761940
 H        -0.580728         1.019543        -0.159561
 H        -0.303637        -0.729985        -0.938539
 H         2.042329         1.227215        -1.934936
 H         1.913652         2.164992        -0.296493
 H         4.263595         1.913950        -0.363690
 H         3.891386        -0.697109        -1.929645
 H         5.306604        -0.382201        -0.942895
 H         3.721543        -2.001723         0.639363
 H         4.126695         0.573308         1.679065
