19
Iteration:  1001charge 0 multiplicity 1
 C        -0.043399        -0.018943         0.027519
 C         1.472766         0.037647        -0.077286
 C         2.185782         1.081373        -0.933560
 C         3.605617         0.974493        -0.343270
 C         4.262294        -0.356230        -0.887925
 C         3.392423        -1.103107         0.141524
 O         2.026651        -1.225094        -0.336279
 C         3.322617         0.219099         0.972113
 O         1.944977         0.383978         1.309993
 H        -0.228044        -0.469095         0.919440
 H        -0.480425         1.048677        -0.006582
 H        -0.626830        -0.479904        -0.734798
 H         2.209914         0.877328        -1.949427
 H         1.766163         2.156078        -0.890072
 H         4.254046         1.925500        -0.362458
 H         4.089928        -0.791062        -1.922678
 H         5.300855        -0.524168        -0.612105
 H         3.532028        -2.113698         0.517029
 H         3.981093         0.641170         1.755952
