19
Iteration:  4912
 C        -0.043205         0.020137        -0.055557
 C         1.454244         0.062179         0.053551
 C         2.124494         1.149043        -0.846923
 C         3.676463         1.022496        -0.387045
 C         4.266049        -0.344355        -0.886513
 C         3.395570        -1.160224         0.108767
 O         1.998982        -1.260651        -0.308348
 C         3.348211         0.156017         0.928605
 O         1.956344         0.385803         1.323913
 H        -0.412822        -0.911626         0.356224
 H        -0.329664         1.019613         0.145127
 H        -0.209820        -0.213853        -1.172500
 H         1.803347         0.864619        -1.817428
 H         1.502615         2.085786        -0.749621
 H         4.118839         1.985962        -0.505632
 H         4.175647        -0.577383        -1.990670
 H         5.443746        -0.346375        -0.661836
 H         3.610161        -2.141999         0.522348
 H         4.072719         0.195935         1.736047
