19
Iteration:   229charge 0 multiplicity 1
 C        -0.048331         0.013608        -0.138005
 C         1.464195        -0.035450         0.023914
 C         2.131985         1.048509        -0.853142
 C         3.671785         0.965918        -0.450589
 C         4.150173        -0.378542        -1.039829
 C         3.469104        -1.076367         0.167346
 O         2.066680        -1.241102        -0.217151
 C         3.323249         0.223283         1.028047
 O         1.971264         0.496250         1.370368
 H        -0.558845        -0.691113         0.661220
 H        -0.398234         0.966370        -0.190677
 H        -0.184190        -0.573837        -1.117799
 H         2.010504         0.850285        -1.915196
 H         1.601761         1.945226        -0.523023
 H         4.218909         1.866025        -0.460186
 H         3.585396        -0.675479        -1.914716
 H         5.189519        -0.453152        -1.294127
 H         3.808435        -2.001783         0.553168
 H         3.901066         0.384538         1.989244
