19
Iteration:  1568charge 0 multiplicity 1
 C        -0.121330        -0.085721        -0.078557
 C         1.455057         0.106336         0.059945
 C         2.233079         1.201210        -0.868710
 C         3.616008         0.889282        -0.397237
 C         4.186601        -0.421822        -0.910357
 C         3.409561        -1.106460         0.093299
 O         2.021338        -1.186976        -0.339148
 C         3.323022         0.266186         0.957561
 O         2.000419         0.383276         1.339980
 H        -0.327554        -0.643751         0.864146
 H        -0.603076         0.834520        -0.052470
 H        -0.210469        -0.679231        -0.964703
 H         2.149241         1.061071        -1.941938
 H         1.760495         2.228601        -0.569427
 H         4.363295         1.770479        -0.381650
 H         3.982988        -0.812205        -1.989729
 H         5.213885        -0.624023        -0.590000
 H         3.729727        -1.975287         0.676185
 H         4.089615         0.341813         1.747854
