19
Iteration:  4330
 C        -0.082739        -0.028362        -0.094624
 C         1.494834         0.050169        -0.001186
 C         2.211162         1.152086        -0.839676
 C         3.689564         1.007712        -0.309410
 C         4.176079        -0.375625        -0.961606
 C         3.379413        -1.110281         0.089711
 O         1.973756        -1.331144        -0.201480
 C         3.308298         0.231191         0.951218
 O         1.986958         0.424513         1.273540
 H        -0.346682        -0.880107         0.479798
 H        -0.404643         0.982632         0.138975
 H        -0.185691        -0.251937        -1.170578
 H         2.136219         0.960418        -1.900872
 H         1.767214         2.066114        -0.558592
 H         4.255497         1.940862        -0.299926
 H         3.784359        -0.382869        -2.101798
 H         5.293456        -0.543160        -0.863002
 H         3.923390        -1.996794         0.428601
 H         4.004902         0.312665         1.771438
