19
Iteration:  3585
 C        -0.082308        -0.090445         0.132356
 C         1.420034         0.049735        -0.122755
 C         2.236491         1.096501        -0.974176
 C         3.656667         0.952315        -0.368272
 C         4.303874        -0.417149        -0.855959
 C         3.390618        -1.124047         0.131401
 O         1.986146        -1.136794        -0.354468
 C         3.342624         0.213366         0.992443
 O         1.891893         0.428725         1.292395
 H        -0.140053        -0.957421         0.807997
 H        -0.480031         0.787742         0.676694
 H        -0.513087        -0.249836        -0.923245
 H         2.128496         1.042917        -2.088526
 H         1.729723         2.103706        -0.833355
 H         4.176353         1.890458        -0.357460
 H         4.236778        -0.562582        -2.018311
 H         5.412488        -0.502771        -0.675959
 H         3.815642        -2.062787         0.564308
 H         4.085046         0.505224         1.702144
