19
Iteration:  2996charge 0 multiplicity 1
 C        -0.021973        -0.100685        -0.127242
 C         1.432156         0.158839         0.054624
 C         2.114867         1.150949        -0.821509
 C         3.623170         0.885606        -0.358087
 C         4.245638        -0.413323        -0.943914
 C         3.387537        -1.118573         0.206450
 O         2.007465        -1.179239        -0.411816
 C         3.343811         0.225253         0.985151
 O         2.011628         0.408501         1.345869
 H        -0.465334        -0.874191         0.477599
 H        -0.674577         0.781898         0.218374
 H        -0.101538        -0.201521        -1.217910
 H         1.868298         1.058629        -1.897312
 H         1.785185         2.165204        -0.525242
 H         4.230976         1.838509        -0.426477
 H         4.037304        -0.623055        -1.969421
 H         5.276096        -0.608980        -0.723342
 H         3.828848        -2.133205         0.593467
 H         4.128653         0.301684         1.665888
