19
Iteration:  1068charge 0 multiplicity 1
 C        -0.084081        -0.055047        -0.066681
 C         1.474143         0.044081         0.045829
 C         2.251443         1.112363        -0.887271
 C         3.622228         0.913327        -0.388034
 C         4.141155        -0.353090        -0.910845
 C         3.319786        -1.091629         0.174544
 O         2.074396        -1.253037        -0.328083
 C         3.372673         0.269256         1.013984
 O         1.985411         0.436220         1.242820
 H        -0.148541        -0.926933         0.394311
 H        -0.531186         0.835991         0.399171
 H        -0.435287        -0.072892        -1.107927
 H         2.054277         1.032473        -1.912518
 H         1.734503         2.044189        -0.478135
 H         4.152661         1.892755        -0.257409
 H         3.783787        -0.638716        -1.955660
 H         5.208208        -0.531392        -0.899447
 H         3.742082        -2.091603         0.529259
 H         4.039096         0.282483         1.956790
