19
Iteration:  3206
 C        -0.067614        -0.004105         0.008693
 C         1.435221         0.131432        -0.019266
 C         2.187451         1.123950        -0.898435
 C         3.590088         0.985209        -0.342592
 C         4.233655        -0.358377        -0.907608
 C         3.365502        -1.147734         0.107792
 O         2.061166        -1.233389        -0.375626
 C         3.319178         0.206586         1.006317
 O         1.986243         0.327369         1.292987
 H        -0.398887        -0.973420         0.561009
 H        -0.408415         0.825135         0.668254
 H        -0.511246         0.062235        -1.030966
 H         2.043259         0.913188        -1.956326
 H         1.944870         2.147857        -0.726604
 H         4.281750         1.834480        -0.418395
 H         4.164980        -0.539934        -2.016846
 H         5.370483        -0.497574        -0.676012
 H         3.589336        -2.082872         0.718707
 H         4.123832         0.389053         1.821246
