19
Iteration:  3163charge 0 multiplicity 1
 C        -0.063446         0.113383        -0.000006
 C         1.425473         0.045835        -0.040662
 C         2.148834         1.085528        -0.897556
 C         3.606556         0.888097        -0.315018
 C         4.320262        -0.235242        -0.886175
 C         3.387878        -1.150771         0.078909
 O         2.024080        -1.269256        -0.329525
 C         3.326559         0.169756         0.952128
 O         1.973534         0.336135         1.297067
 H        -0.341625        -0.509670         0.945388
 H        -0.291817         1.184303         0.182102
 H        -0.663759        -0.137274        -0.928692
 H         2.112912         0.800046        -1.929369
 H         1.650240         2.036590        -0.895587
 H         4.062703         1.882213        -0.255603
 H         4.272766        -0.357332        -1.957514
 H         5.418702        -0.159023        -0.575057
 H         3.743550        -2.160486         0.378718
 H         3.970537         0.171734         1.937186
