19
Iteration:   883
 C         0.017945        -0.027973        -0.036949
 C         1.438956         0.040133         0.019568
 C         2.142365         1.120247        -0.952167
 C         3.625707         0.982573        -0.369706
 C         4.255851        -0.380453        -0.904943
 C         3.362910        -1.133487         0.140747
 O         2.024484        -1.301991        -0.244430
 C         3.316438         0.239706         0.938511
 O         1.955856         0.461991         1.281672
 H        -0.255811        -0.898114         0.457578
 H        -0.414180         0.941067         0.420325
 H        -0.341920        -0.031840        -1.066327
 H         2.015634         0.855970        -1.965446
 H         1.667076         2.148822        -0.847781
 H         4.215474         1.839190        -0.383156
 H         4.152540        -0.785429        -1.927627
 H         5.285692        -0.318679        -0.665364
 H         3.774840        -2.019163         0.687983
 H         4.013041         0.444856         1.758973
