19
Iteration:  3858
 C        -0.060042         0.009659         0.074800
 C         1.452544         0.080426         0.007616
 C         2.107539         1.033079        -0.940319
 C         3.630224         0.908278        -0.335861
 C         4.291333        -0.316661        -0.896715
 C         3.404429        -1.074472         0.043835
 O         2.010109        -1.202517        -0.391114
 C         3.341155         0.168732         1.022756
 O         1.945634         0.398135         1.283620
 H        -0.147522        -0.761418         0.866890
 H        -0.407981         1.059010         0.267549
 H        -0.412477        -0.379551        -0.920395
 H         2.156945         0.686022        -1.957131
 H         1.962851         2.085337        -0.827358
 H         4.115885         1.842565        -0.385830
 H         4.238597        -0.490422        -1.973979
 H         5.241539        -0.240518        -0.425442
 H         3.671723        -2.059393         0.507813
 H         3.999723         0.247467         1.933725
