19
Iteration:  2836
 C        -0.104657         0.000936        -0.221829
 C         1.476172         0.042904         0.071446
 C         2.121721         1.053527        -0.853339
 C         3.638028         0.962560        -0.407504
 C         4.263307        -0.357226        -0.990893
 C         3.443412        -1.119924         0.127298
 O         1.987157        -1.201319        -0.194166
 C         3.332137         0.229515         1.005958
 O         1.986817         0.369729         1.355921
 H        -0.514844        -0.884992         0.224147
 H        -0.417442         0.894687         0.327646
 H        -0.254750         0.211723        -1.267739
 H         1.887809         0.933518        -1.880508
 H         1.925968         2.016088        -0.564496
 H         4.177287         1.922538        -0.534981
 H         3.991017        -0.646215        -1.977727
 H         5.391421        -0.455300        -0.795135
 H         3.737965        -2.007360         0.573456
 H         4.170460         0.397551         1.626432
