19
Iteration:  2031
 C        -0.084342        -0.093101        -0.082365
 C         1.425306         0.039578        -0.078550
 C         2.219538         1.161135        -0.870216
 C         3.640866         0.966781        -0.420490
 C         4.197916        -0.373508        -0.994303
 C         3.410786        -1.092416         0.203689
 O         2.006989        -1.200472        -0.202758
 C         3.315601         0.202523         0.996158
 O         2.003838         0.416686         1.292062
 H        -0.309750        -1.102027         0.457611
 H        -0.313411         0.779233         0.496240
 H        -0.318483         0.015632        -1.134464
 H         2.017434         1.157364        -1.939294
 H         1.796967         1.985586        -0.440409
 H         4.373602         1.881577        -0.431792
 H         3.912583        -0.710800        -1.918893
 H         5.269917        -0.651090        -0.934823
 H         3.732955        -2.067758         0.503933
 H         3.877733         0.351183         1.951500
