19
Iteration:  1629
 C        -0.072690         0.078649        -0.067644
 C         1.471418         0.050912         0.033850
 C         2.108403         1.049810        -0.942445
 C         3.627773         0.963338        -0.431303
 C         4.279674        -0.331693        -0.922917
 C         3.436685        -1.087881         0.104962
 O         1.980477        -1.217870        -0.235987
 C         3.354795         0.210797         1.003507
 O         2.002123         0.310672         1.339148
 H        -0.581887        -0.662296         0.493867
 H        -0.592110         1.071326         0.209380
 H        -0.591831        -0.031665        -1.085829
 H         2.108047         0.682235        -1.999762
 H         1.676181         2.013567        -0.871672
 H         4.257532         1.815454        -0.457590
 H         4.113115        -0.528373        -1.953092
 H         5.368318        -0.395334        -0.724064
 H         3.764006        -2.057024         0.560861
 H         4.008343         0.225012         1.930547
