19
Iteration:  4113charge 0 multiplicity 1
 C        -0.078019         0.090034         0.040632
 C         1.467634         0.055063         0.046474
 C         2.160732         1.094464        -0.837249
 C         3.595653         0.968353        -0.361355
 C         4.292637        -0.366225        -0.947223
 C         3.393440        -1.091487         0.094570
 O         2.050043        -1.285196        -0.345268
 C         3.333610         0.249542         0.929008
 O         1.929104         0.285451         1.289627
 H        -0.462586        -0.665955         0.729759
 H        -0.426258         1.166887        -0.007962
 H        -0.413002        -0.285658        -1.019268
 H         2.029172         1.061612        -1.990094
 H         1.746349         2.220609        -0.525095
 H         4.161494         1.941657        -0.623110
 H         4.371305        -0.689320        -1.998945
 H         5.253190        -0.351899        -0.465236
 H         3.815352        -2.023350         0.524124
 H         3.990594         0.443131         1.772685
