19
Iteration:  4097charge 0 multiplicity 1
 C        -0.067542         0.029492        -0.091281
 C         1.388214         0.031701        -0.037551
 C         2.135056         1.231391        -0.853622
 C         3.658073         0.947433        -0.468335
 C         4.234938        -0.334974        -0.934968
 C         3.465457        -1.124610         0.158525
 O         2.054074        -1.258900        -0.288209
 C         3.318788         0.156697         1.013895
 O         1.995721         0.334898         1.313788
 H        -0.442804        -0.465465         0.815058
 H        -0.400079         0.982495         0.236073
 H        -0.529735        -0.392840        -0.914415
 H         1.907021         1.144553        -1.896297
 H         1.692506         2.086825        -0.377218
 H         4.141754         1.864518        -0.295236
 H         3.813424        -0.606773        -1.938601
 H         5.360857        -0.387306        -0.830210
 H         3.769687        -2.125763         0.573566
 H         4.021221         0.261299         1.858291
