19
Iteration:  2602charge 0 multiplicity 1
 C        -0.077064        -0.014208         0.038668
 C         1.365475         0.022904        -0.023893
 C         2.228980         1.111769        -0.969566
 C         3.662701         0.966858        -0.412543
 C         4.337384        -0.314354        -0.949297
 C         3.379091        -1.113197         0.076802
 O         1.987047        -1.276902        -0.214130
 C         3.323326         0.186295         1.046171
 O         1.951017         0.424204         1.273487
 H        -0.426368        -0.812574         0.713145
 H        -0.462440         0.916282         0.306899
 H        -0.441311        -0.088826        -0.966020
 H         2.077187         0.842535        -1.992891
 H         1.669352         2.051253        -0.882767
 H         4.126830         1.895479        -0.298012
 H         4.223947        -0.519192        -2.091570
 H         5.391024        -0.284114        -0.692467
 H         3.799154        -2.043298         0.556631
 H         4.114416         0.357273         1.807396
