19
Iteration:   906charge 0 multiplicity 1
 C        -0.075404         0.093029        -0.132002
 C         1.447180        -0.044426        -0.039814
 C         2.190289         0.982761        -0.915387
 C         3.618149         0.995297        -0.398805
 C         4.160614        -0.324794        -0.954849
 C         3.416558        -1.066796         0.186934
 O         2.049592        -1.320352        -0.182703
 C         3.369483         0.252608         1.078111
 O         1.991937         0.388465         1.279284
 H        -0.578735        -0.705020         0.341022
 H        -0.352739         1.136007         0.286447
 H        -0.444087         0.206800        -1.190660
 H         2.130503         1.004205        -1.981500
 H         1.652236         1.910040        -0.618136
 H         4.089426         1.884406        -0.600737
 H         3.755238        -0.675604        -1.926091
 H         5.225253        -0.314643        -1.036901
 H         3.994403        -1.976850         0.496935
 H         4.066446         0.606627         1.886405
