19
Iteration:  2386
 C        -0.068272        -0.074455        -0.018824
 C         1.442044         0.038258        -0.029022
 C         2.137083         1.165953        -0.889904
 C         3.649007         0.916250        -0.381341
 C         4.304961        -0.336499        -0.975522
 C         3.398535        -1.115701         0.141549
 O         2.008710        -1.213714        -0.289115
 C         3.340505         0.185277         0.987096
 O         1.942603         0.415669         1.293103
 H        -0.489084        -0.645909         0.901157
 H        -0.544842         0.854205         0.304801
 H        -0.662028        -0.400192        -0.877418
 H         2.070518         1.193581        -1.971681
 H         1.882186         2.203307        -0.638331
 H         4.253698         1.783307        -0.354917
 H         4.290619        -0.710363        -2.007636
 H         5.303068        -0.359375        -0.644585
 H         3.780541        -2.091181         0.539968
 H         4.167824         0.418128         1.757893
