19
Iteration:  3306
 C        -0.103078         0.078432         0.067155
 C         1.441520         0.025651        -0.076333
 C         2.147301         1.101419        -0.904891
 C         3.634153         1.052765        -0.380768
 C         4.345457        -0.313817        -0.898191
 C         3.379222        -1.128372         0.172436
 O         2.019076        -1.269736        -0.346767
 C         3.322483         0.179579         0.976152
 O         1.958328         0.267981         1.249471
 H        -0.301094        -0.414318         1.030918
 H        -0.345798         1.191980         0.092115
 H        -0.783941        -0.230083        -0.787607
 H         2.238688         0.857345        -1.900884
 H         1.835007         2.084321        -0.942698
 H         4.144260         1.993646        -0.230604
 H         4.244125        -0.465516        -1.956316
 H         5.504711        -0.405123        -0.662446
 H         3.713788        -2.045015         0.617441
 H         3.827202         0.331088         1.908956
