19
Iteration:   843
 C        -0.054255        -0.134110         0.102726
 C         1.456798         0.122557         0.000796
 C         2.137307         1.138120        -0.933544
 C         3.647486         0.963294        -0.422348
 C         4.321224        -0.466111        -0.820067
 C         3.317841        -1.085076         0.166420
 O         2.037717        -1.204170        -0.455442
 C         3.328274         0.244082         0.947162
 O         1.963297         0.467553         1.289889
 H        -0.393680        -0.770714         0.945936
 H        -0.611250         0.849421         0.214534
 H        -0.424359        -0.454757        -0.926327
 H         2.228225         0.783738        -2.023339
 H         1.640364         2.060881        -0.817542
 H         4.315399         1.867595        -0.336388
 H         4.173307        -0.777085        -1.859564
 H         5.396271        -0.614009        -0.463054
 H         3.485300        -2.059437         0.668183
 H         4.040141         0.341018         1.830057
