19
Iteration:   619
 C        -0.086960        -0.112657        -0.070932
 C         1.402570         0.087000         0.007910
 C         2.212206         1.121653        -0.858592
 C         3.656271         0.887302        -0.358950
 C         4.310075        -0.382228        -0.995161
 C         3.400139        -1.097478         0.158092
 O         1.931656        -1.211383        -0.292642
 C         3.339781         0.221448         0.946013
 O         1.990515         0.484325         1.330634
 H        -0.419754        -0.701604         0.956861
 H        -0.724279         0.725588        -0.130590
 H        -0.207521        -0.766497        -0.997969
 H         2.046662         1.133345        -1.955413
 H         1.849499         2.085388        -0.423619
 H         4.313552         1.733507        -0.417365
 H         3.982062        -0.435413        -2.024884
 H         5.418192        -0.504588        -0.987534
 H         3.880065        -1.983228         0.686272
 H         4.016529         0.476156         1.831104
