19
Iteration:  4523
 C        -0.035615        -0.036383         0.036007
 C         1.428244         0.085551        -0.079405
 C         2.179790         1.170166        -0.984277
 C         3.687244         0.932733        -0.369980
 C         4.270955        -0.315900        -0.921013
 C         3.408492        -1.171096         0.189471
 O         2.026136        -1.280152        -0.373987
 C         3.248716         0.218043         0.995770
 O         1.946346         0.417218         1.360197
 H        -0.065459        -0.754102         0.800858
 H        -0.348616         0.892336         0.493049
 H        -0.623738        -0.175778        -0.852419
 H         2.183946         0.902430        -2.063082
 H         1.686085         2.057777        -0.659126
 H         4.345164         1.835173        -0.485000
 H         3.945118        -0.431808        -1.954448
 H         5.401436        -0.348771        -0.710655
 H         3.565968        -2.221210         0.429788
 H         3.817674         0.279803         1.904747
