19
Iteration:    15charge 0 multiplicity 1
 C         0.031840        -0.098316         0.115249
 C         1.461604         0.185048         0.017848
 C         2.216724         1.114900        -1.015661
 C         3.599411         0.947452        -0.507829
 C         4.257270        -0.401867        -0.814639
 C         3.290339        -1.098782         0.164517
 O         1.991082        -1.284451        -0.370947
 C         3.328438         0.313599         0.876378
 O         1.921612         0.405488         1.393166
 H        -0.055362        -0.787514         1.038619
 H        -0.535934         0.714331         0.212574
 H        -0.305303        -0.676968        -0.800278
 H         2.059772         0.790445        -2.004681
 H         1.983569         2.164329        -0.990891
 H         4.180247         1.814435        -0.603259
 H         4.299818        -0.811741        -1.854903
 H         5.255456        -0.474907        -0.554894
 H         3.808986        -1.932313         0.669213
 H         4.191573         0.549774         1.586588
