19
Iteration:   867
 C        -0.173914        -0.090246         0.022443
 C         1.395426         0.166521        -0.037798
 C         2.233903         1.095555        -0.963639
 C         3.614113         0.859813        -0.484789
 C         4.342214        -0.398065        -0.894263
 C         3.456376        -1.091866         0.156977
 O         2.027012        -1.135944        -0.253149
 C         3.334173         0.241621         0.981257
 O         1.942461         0.386495         1.308497
 H        -0.314749        -1.014173         0.729463
 H        -0.767060         0.657941         0.408554
 H        -0.526838        -0.292830        -1.002557
 H         2.040930         0.881822        -2.106478
 H         1.987551         2.116920        -0.693439
 H         4.169537         1.916856        -0.467837
 H         4.256520        -0.581734        -1.968394
 H         5.392840        -0.580662        -0.463797
 H         3.599534        -2.095994         0.509632
 H         3.944728         0.415297         1.890500
