19
Iteration:   592charge 0 multiplicity 1
 C        -0.075318        -0.024668         0.034365
 C         1.439222         0.065234        -0.017972
 C         2.156194         1.158102        -0.946162
 C         3.565990         0.970379        -0.416016
 C         4.300135        -0.421752        -0.887648
 C         3.390288        -1.123307         0.135095
 O         2.022037        -1.193660        -0.349377
 C         3.343217         0.211869         0.998114
 O         1.982984         0.373508         1.318065
 H        -0.343267        -0.542175         0.879948
 H        -0.599685         0.985441         0.210860
 H        -0.424519        -0.513250        -0.856557
 H         2.087531         0.780239        -1.998563
 H         1.611799         2.112080        -0.899995
 H         4.345187         1.780706        -0.457681
 H         4.434666        -0.723142        -1.952931
 H         5.286580        -0.404138        -0.417566
 H         3.849376        -2.029033         0.456536
 H         3.954878         0.473128         1.822160
