19
Iteration:    94charge 0 multiplicity 1
 C        -0.079477         0.063616        -0.211414
 C         1.462964         0.001163         0.002874
 C         2.109779         0.988240        -0.951013
 C         3.532240         0.965289        -0.407258
 C         4.176888        -0.339557        -1.032306
 C         3.442163        -1.122700         0.175224
 O         2.047805        -1.252879        -0.107600
 C         3.370777         0.265321         0.954208
 O         2.064704         0.407524         1.437490
 H        -0.598268        -0.627749         0.415373
 H        -0.491648         1.142841         0.040758
 H        -0.315754        -0.202054        -1.226708
 H         2.040207         0.623649        -2.011855
 H         1.675043         1.979921        -0.746837
 H         4.162129         1.911853        -0.378666
 H         3.831702        -0.584909        -2.063677
 H         5.310387        -0.277829        -0.912995
 H         3.998279        -2.030789         0.678230
 H         4.128234         0.557600         1.661620
