19
Iteration:  3150charge 0 multiplicity 1
 C        -0.051380         0.098814         0.029573
 C         1.477429         0.038408        -0.031403
 C         2.221653         1.108202        -0.912454
 C         3.614887         1.077759        -0.310365
 C         4.210919        -0.324794        -0.931439
 C         3.456025        -1.125750         0.076292
 O         2.003898        -1.298106        -0.349904
 C         3.302598         0.119282         1.042617
 O         1.923597         0.343705         1.274760
 H        -0.499974        -0.591839         0.878666
 H        -0.491416         1.137064         0.074656
 H        -0.407876        -0.402366        -0.916185
 H         2.195070         0.893158        -1.990735
 H         1.843332         2.060471        -0.710654
 H         4.310916         1.975849        -0.235929
 H         3.963813        -0.578822        -2.062798
 H         5.325713        -0.526971        -0.702134
 H         3.859726        -2.171598         0.470970
 H         3.994438         0.396252         1.924867
