19
Iteration:  4281charge 0 multiplicity 1
 C        -0.147021         0.000882         0.087521
 C         1.506184         0.087464        -0.005427
 C         2.153276         1.115992        -0.890350
 C         3.596131         0.959190        -0.371974
 C         4.329762        -0.398522        -0.878260
 C         3.329077        -1.103333         0.189848
 O         2.033755        -1.217232        -0.476121
 C         3.383145         0.272425         0.969635
 O         1.963840         0.324219         1.270538
 H        -0.366279        -0.782216         0.890293
 H        -0.528733         1.030887         0.061595
 H        -0.404135        -0.486951        -0.840769
 H         2.010834         0.811010        -1.930510
 H         1.785037         2.160322        -0.648557
 H         4.287954         1.847184        -0.540406
 H         4.222808        -0.651635        -1.857834
 H         5.374349        -0.370690        -0.549611
 H         3.523043        -2.064582         0.690597
 H         4.048220         0.412441         1.879939
