19
Iteration:  3600
 C        -0.109557        -0.114713         0.062794
 C         1.420349         0.156248         0.014951
 C         2.213874         1.135235        -0.962545
 C         3.694925         0.980545        -0.442529
 C         4.322742        -0.329153        -0.854375
 C         3.330459        -1.079637         0.092666
 O         1.981852        -1.271335        -0.327659
 C         3.293042         0.211278         0.952798
 O         1.995957         0.414418         1.277800
 H        -0.247726        -0.988898         0.671966
 H        -0.498482         0.708543         0.676019
 H        -0.587836        -0.306874        -0.876410
 H         2.211456         0.579460        -1.923488
 H         1.955996         2.262854        -0.877008
 H         4.380718         1.865594        -0.448284
 H         4.340235        -0.677275        -1.838131
 H         5.259788        -0.447523        -0.387728
 H         3.480995        -2.087816         0.545569
 H         3.789957         0.118419         1.967267
