19
Iteration:   171charge 0 multiplicity 1
 C        -0.071102        -0.017300         0.160451
 C         1.367042         0.081839        -0.016909
 C         2.154674         0.962251        -0.896983
 C         3.598281         0.857271        -0.402097
 C         4.386781        -0.386257        -0.885464
 C         3.381266        -1.099351         0.111094
 O         2.104255        -1.222390        -0.404549
 C         3.270330         0.312716         0.925269
 O         1.929973         0.488984         1.256549
 H        -0.279944        -0.804434         0.872833
 H        -0.524391         0.969609         0.640527
 H        -0.607410        -0.135835        -0.789029
 H         2.106893         0.667004        -1.989666
 H         1.865608         2.037569        -0.855042
 H         4.221069         1.796309        -0.311293
 H         4.220978        -0.567234        -1.958234
 H         5.490995        -0.373372        -0.544251
 H         3.759456        -2.125780         0.687110
 H         3.872416         0.564878         1.746479
