19
Iteration:   722
 C        -0.090422        -0.114952         0.119745
 C         1.404706         0.021946        -0.073951
 C         2.168650         1.101432        -0.972879
 C         3.746024         0.930178        -0.403672
 C         4.279178        -0.418236        -0.865980
 C         3.343969        -1.053781         0.118282
 O         2.056152        -1.179090        -0.370744
 C         3.303766         0.245522         1.008791
 O         1.930086         0.488753         1.296291
 H        -0.201375        -1.030004         0.536941
 H        -0.522693         0.775054         0.672819
 H        -0.584273        -0.063528        -0.863931
 H         2.030792         0.872707        -2.035841
 H         1.869429         2.126354        -0.761413
 H         4.368776         1.817386        -0.262278
 H         4.015965        -0.777132        -1.900376
 H         5.312395        -0.678631        -0.635676
 H         3.800350        -1.987195         0.514837
 H         3.980640         0.278848         1.841736
