19
Iteration:  2947
 C        -0.064759         0.055468        -0.086973
 C         1.432653         0.006928         0.036091
 C         2.242967         1.109017        -0.888953
 C         3.654391         0.983734        -0.326979
 C         4.210303        -0.265467        -0.954285
 C         3.370804        -1.157170         0.053775
 O         2.037019        -1.317609        -0.244904
 C         3.324320         0.198688         1.014473
 O         1.954397         0.390197         1.295692
 H        -0.602282        -0.324885         0.807427
 H        -0.482967         1.016152        -0.073597
 H        -0.270437        -0.476204        -1.017083
 H         2.112637         0.902923        -1.936398
 H         1.700147         1.996934        -0.690715
 H         4.249116         1.892455        -0.317137
 H         3.911448        -0.424553        -2.036142
 H         5.338014        -0.348810        -0.887283
 H         3.715485        -2.076497         0.441849
 H         4.140205         0.328852         1.819177
