19
Iteration:  2659charge 0 multiplicity 1
 C        -0.073451        -0.052649        -0.025011
 C         1.404734         0.093152        -0.049404
 C         2.167410         1.105079        -0.919050
 C         3.623006         0.894538        -0.463295
 C         4.271547        -0.393051        -0.872002
 C         3.419759        -1.090112         0.132829
 O         2.018007        -1.146090        -0.289408
 C         3.319151         0.201431         0.990906
 O         1.999104         0.426677         1.332831
 H        -0.365090        -1.040229         0.394321
 H        -0.469880         0.740266         0.719061
 H        -0.440401        -0.260466        -1.056652
 H         1.884340         0.744768        -1.896709
 H         1.727298         2.020669        -0.626701
 H         4.191743         1.852560        -0.537813
 H         4.205244        -0.724403        -1.944707
 H         5.377588        -0.426237        -0.517698
 H         3.720098        -2.078824         0.536423
 H         4.031617         0.415820         1.779208
