19
Iteration:  3659charge 0 multiplicity 1
 C        -0.030315         0.060770        -0.140212
 C         1.440435         0.042585         0.031892
 C         2.152905         1.140118        -0.802726
 C         3.624684         0.934460        -0.399438
 C         4.165359        -0.339688        -0.944230
 C         3.446204        -1.120016         0.154443
 O         2.075921        -1.329767        -0.186821
 C         3.352028         0.315833         0.935449
 O         1.936578         0.310922         1.252127
 H        -0.319290        -0.640416         0.704082
 H        -0.300305         1.117496         0.040959
 H        -0.239334        -0.145443        -1.255987
 H         1.903448         0.983369        -1.822687
 H         1.802146         2.114105        -0.736300
 H         4.307146         1.811225        -0.334056
 H         3.621708        -0.589509        -1.885137
 H         5.277561        -0.518034        -1.092417
 H         3.831877        -2.039113         0.564263
 H         3.822672         0.618277         1.839589
