19
Iteration:  2343charge 0 multiplicity 1
 C        -0.056841         0.113485         0.061723
 C         1.433443        -0.028988         0.012590
 C         2.187803         1.024714        -0.990814
 C         3.552010         0.983812        -0.364255
 C         4.287968        -0.298060        -0.885203
 C         3.495657        -1.147014         0.098219
 O         1.999784        -1.197043        -0.367911
 C         3.343295         0.197477         0.964435
 O         1.918656         0.333044         1.343174
 H        -0.490519        -0.282328         1.072507
 H        -0.320526         1.155331        -0.099848
 H        -0.445583        -0.323778        -0.869576
 H         2.146480         0.572526        -2.007786
 H         1.605165         1.981842        -0.718032
 H         3.991872         1.948067        -0.398689
 H         4.239672        -0.445504        -1.981957
 H         5.355223        -0.289368        -0.630013
 H         3.947506        -2.159212         0.451589
 H         4.074663         0.344251         1.900346
