19
Iteration:  1454charge 0 multiplicity 1
 C        -0.019267        -0.128083        -0.147248
 C         1.450188         0.056918         0.011535
 C         2.191104         1.196294        -0.807558
 C         3.629634         0.941932        -0.394670
 C         4.227318        -0.418376        -0.980771
 C         3.299564        -1.119218         0.132315
 O         1.998813        -1.142910        -0.266449
 C         3.406094         0.229342         0.950906
 O         1.998431         0.416598         1.350625
 H        -0.480578        -1.088773         0.351481
 H        -0.685147         0.666379         0.393846
 H        -0.308093        -0.206949        -1.224992
 H         1.883727         1.031739        -1.890128
 H         1.869908         2.135840        -0.492844
 H         4.209361         1.860141        -0.477274
 H         3.969863        -0.589781        -2.019206
 H         5.268132        -0.793834        -0.636626
 H         3.801488        -2.011832         0.699402
 H         4.023884         0.345483         1.861200
