19
Iteration:  2371
 C        -0.135665         0.083356         0.119977
 C         1.403031         0.075498         0.004905
 C         2.189863         1.145899        -0.928345
 C         3.592083         0.972487        -0.435613
 C         4.298370        -0.367512        -0.847320
 C         3.511548        -1.131481         0.137424
 O         2.067312        -1.276831        -0.377152
 C         3.321038         0.234710         0.942208
 O         1.915510         0.296288         1.262723
 H        -0.361006        -0.557232         0.926184
 H        -0.455801         1.152185         0.038040
 H        -0.400317        -0.399337        -0.870505
 H         2.017243         0.826872        -1.962623
 H         1.744480         2.045609        -0.535949
 H         4.162292         1.941956        -0.466110
 H         4.118709        -0.615334        -1.922068
 H         5.405941        -0.338057        -0.652787
 H         3.799453        -2.131569         0.566930
 H         3.802511         0.430395         1.870764
