19
Iteration:  1982
 C        -0.105950         0.036839        -0.090271
 C         1.454279        -0.000613         0.029375
 C         2.176811         1.046117        -0.932884
 C         3.603140         0.979100        -0.349395
 C         4.244120        -0.307373        -0.937439
 C         3.446358        -1.094356         0.074048
 O         1.997497        -1.216243        -0.229362
 C         3.383619         0.227443         0.971207
 O         1.977227         0.367380         1.371759
 H        -0.560943        -0.513323         0.684954
 H        -0.237786         1.152180        -0.091805
 H        -0.286837        -0.500439        -1.052561
 H         1.916261         0.679968        -1.943116
 H         1.563213         2.031295        -0.858504
 H         4.157166         1.900970        -0.583201
 H         4.113788        -0.663668        -2.045026
 H         5.293717        -0.551228        -0.707387
 H         3.691101        -2.163138         0.421586
 H         4.048928         0.391696         1.814201
