19
Iteration:  2394
 C        -0.076946        -0.122560        -0.031871
 C         1.446051         0.072325        -0.054505
 C         2.174549         1.181123        -0.864690
 C         3.632308         0.913416        -0.378184
 C         4.290045        -0.366846        -0.961866
 C         3.328187        -1.083931         0.096774
 O         2.012784        -1.202205        -0.252624
 C         3.320104         0.190375         0.977001
 O         2.005872         0.450964         1.309022
 H        -0.182690        -0.935592         0.712700
 H        -0.415454         0.926207         0.181498
 H        -0.496404        -0.414994        -1.063112
 H         2.010340         0.884031        -1.878455
 H         1.673486         2.007716        -0.430597
 H         4.215851         1.835290        -0.355839
 H         4.149045        -0.615262        -2.066438
 H         5.350835        -0.414049        -0.692698
 H         3.709458        -2.074157         0.533112
 H         4.036338         0.245927         1.849365
