19
Iteration:  4081charge 0 multiplicity 1
 C        -0.045532        -0.071126        -0.073594
 C         1.518894         0.077789        -0.034665
 C         2.182405         1.167696        -0.820838
 C         3.572045         0.994730        -0.289621
 C         4.129212        -0.402997        -1.006915
 C         3.435510        -1.140578         0.102557
 O         2.031782        -1.196284        -0.273552
 C         3.383509         0.191121         0.991179
 O         1.952400         0.393696         1.320124
 H        -0.480029        -0.757388         0.685166
 H        -0.552170         0.957917        -0.010420
 H        -0.237502        -0.454675        -1.163436
 H         2.158591         1.096585        -1.939170
 H         1.869061         2.181386        -0.509256
 H         4.387785         1.759857        -0.417548
 H         3.788773        -0.670285        -2.002028
 H         5.208444        -0.488790        -1.080385
 H         3.738897        -2.124849         0.480347
 H         3.980427         0.370349         1.884053
