19
Iteration:  2849charge 0 multiplicity 1
 C        -0.075643         0.000207        -0.113641
 C         1.395418         0.113330        -0.010422
 C         2.188776         1.141597        -0.871405
 C         3.649331         0.944275        -0.398637
 C         4.216406        -0.392208        -0.985831
 C         3.384167        -1.100490         0.125336
 O         2.053097        -1.257072        -0.214700
 C         3.411364         0.242415         0.994485
 O         1.965924         0.381829         1.366533
 H        -0.461150        -1.020791         0.179352
 H        -0.777920         0.654113         0.314452
 H        -0.244461        -0.095303        -1.197392
 H         2.180257         0.821434        -1.884257
 H         1.686992         2.017001        -0.809802
 H         4.236531         1.865120        -0.422576
 H         4.011250        -0.537668        -2.052299
 H         5.265800        -0.524858        -0.845270
 H         3.754220        -2.068370         0.435963
 H         3.731911         0.333944         2.066156
