19
Iteration:  4703charge 0 multiplicity 1
 C        -0.126343        -0.016951         0.047830
 C         1.458268         0.043012        -0.025014
 C         2.247455         1.151745        -0.913019
 C         3.638470         0.993140        -0.355936
 C         4.199135        -0.331676        -0.889464
 C         3.405025        -1.150694         0.095085
 O         2.063637        -1.293214        -0.340090
 C         3.386275         0.224277         0.969226
 O         1.936122         0.350005         1.264669
 H        -0.700490        -0.618774         0.848705
 H        -0.263318         1.101895         0.173228
 H        -0.734094         0.013430        -0.838430
 H         2.142685         0.959753        -1.957540
 H         1.742653         2.137873        -0.780019
 H         4.074120         1.976083        -0.196335
 H         3.981138        -0.550391        -1.939618
 H         5.354395        -0.375455        -0.708948
 H         3.609563        -2.007336         0.710496
 H         4.024157         0.318619         1.830060
