19
Iteration:   576
 C         0.047972         0.078639         0.084250
 C         1.462408         0.080647        -0.067493
 C         2.162426         1.033877        -1.002399
 C         3.588857         0.947794        -0.404750
 C         4.289596        -0.260159        -0.821154
 C         3.416107        -1.103910         0.196006
 O         1.971511        -1.257121        -0.346988
 C         3.294177         0.240229         0.893152
 O         1.955642         0.279290         1.300829
 H        -0.189430        -0.654755         1.016401
 H        -0.248449         1.037733         0.296835
 H        -0.427959        -0.197862        -0.905021
 H         1.934864         0.809525        -2.044890
 H         1.912700         2.063038        -0.722028
 H         3.898560         1.944841        -0.382492
 H         4.026874        -0.593561        -1.824200
 H         5.394819        -0.305130        -0.644094
 H         3.371668        -2.114624         0.747520
 H         4.075039         0.273650         1.747933
