19
Iteration:  1813
 C        -0.110341        -0.078502         0.062041
 C         1.464989         0.128409        -0.023409
 C         2.130319         1.089499        -0.961510
 C         3.572551         0.934469        -0.395306
 C         4.373030        -0.444934        -0.841446
 C         3.377637        -1.100778         0.102415
 O         2.022580        -1.146860        -0.341593
 C         3.326162         0.229678         0.926854
 O         1.960386         0.455712         1.311441
 H        -0.179900        -0.875882         0.763432
 H        -0.702059         0.770252         0.409571
 H        -0.497966        -0.631200        -0.811612
 H         1.880502         0.845838        -2.107099
 H         1.989064         2.191947        -0.778692
 H         4.169415         1.812687        -0.289205
 H         4.470798        -0.924245        -1.817138
 H         5.441432        -0.573197        -0.336542
 H         3.640179        -2.079409         0.451876
 H         4.166975         0.265018         1.642299
