19
Iteration:   362
 C        -0.109199        -0.105212        -0.104085
 C         1.401334         0.162453         0.057931
 C         2.196564         1.094482        -0.762010
 C         3.613845         0.917398        -0.408731
 C         4.193631        -0.409232        -1.032101
 C         3.435471        -1.080765         0.123664
 O         2.055646        -1.251958        -0.301744
 C         3.324142         0.179477         0.985816
 O         2.022743         0.507660         1.340672
 H        -0.290936        -1.018763         0.384757
 H        -0.910235         0.726582         0.069357
 H        -0.049640        -0.174045        -1.173238
 H         1.972470         0.860011        -1.789747
 H         1.788133         2.122129        -0.662698
 H         4.202636         1.861886        -0.246061
 H         4.022476        -0.565173        -2.107438
 H         5.233318        -0.361634        -0.891703
 H         3.883228        -1.867143         0.604729
 H         3.948417         0.052549         1.951483
