19
Iteration:  4020charge 0 multiplicity 1
 C        -0.050295         0.097068         0.075230
 C         1.400608         0.071957         0.002285
 C         2.139901         1.112828        -0.892604
 C         3.620924         0.990716        -0.426104
 C         4.288776        -0.324986        -0.853119
 C         3.471558        -1.164043         0.095496
 O         2.058035        -1.310911        -0.390185
 C         3.349129         0.173826         0.982796
 O         1.904330         0.350181         1.275337
 H        -0.411787        -0.730642         0.635420
 H        -0.393117         1.066726         0.354738
 H        -0.433472        -0.013002        -0.904241
 H         1.827927         0.935025        -1.911873
 H         1.686241         2.105550        -0.593074
 H         4.130775         1.912051        -0.466779
 H         4.097752        -0.563669        -1.887989
 H         5.413840        -0.270578        -0.613325
 H         3.724649        -2.033975         0.664275
 H         4.034810         0.295931         1.831654
