19
Iteration:  1056
 C        -0.015161        -0.021669        -0.110916
 C         1.461676         0.054860        -0.031966
 C         2.146930         1.125615        -0.892251
 C         3.641256         1.014778        -0.363900
 C         4.188549        -0.346416        -0.970805
 C         3.411350        -1.098283         0.182975
 O         1.992601        -1.283049        -0.239606
 C         3.340171         0.191341         0.987083
 O         1.997804         0.378558         1.335351
 H        -0.531833        -0.772170         0.335699
 H        -0.548385         0.890443         0.305716
 H        -0.225093        -0.112928        -1.174655
 H         2.112642         0.942411        -1.906625
 H         1.763617         2.180808        -0.700575
 H         4.353982         1.888447        -0.549006
 H         3.771532        -0.618722        -1.989972
 H         5.262558        -0.522608        -0.877694
 H         3.796472        -2.007587         0.670470
 H         4.023157         0.385167         1.842327
