19
Iteration:  1561
 C        -0.092127        -0.066166        -0.023348
 C         1.359335         0.102393         0.042795
 C         2.206465         1.161708        -0.892206
 C         3.685071         0.908508        -0.386422
 C         4.273018        -0.375283        -0.897864
 C         3.320577        -1.104395         0.127461
 O         2.000873        -1.211462        -0.391531
 C         3.361073         0.250425         0.950589
 O         2.007763         0.375491         1.362383
 H        -0.294006        -0.744515         0.897643
 H        -0.585529         0.943475        -0.165641
 H        -0.183907        -0.579088        -0.980158
 H         1.923953         0.903847        -1.989296
 H         1.858112         2.211623        -0.590453
 H         4.362888         1.698889        -0.551924
 H         4.061847        -0.851159        -1.840849
 H         5.358780        -0.368754        -0.635740
 H         3.712828        -1.996631         0.590601
 H         4.005454         0.460759         1.764695
