19
Iteration:  2366charge 0 multiplicity 1
 C        -0.103845         0.111295         0.090357
 C         1.433313         0.078018        -0.008462
 C         2.167625         1.116850        -0.918545
 C         3.599046         0.951756        -0.415000
 C         4.325974        -0.349794        -0.865064
 C         3.409587        -1.100450         0.144652
 O         2.104002        -1.275941        -0.391792
 C         3.253191         0.237992         0.981314
 O         1.962357         0.263666         1.254899
 H        -0.420577        -0.395900         1.069518
 H        -0.490649         1.115589         0.097388
 H        -0.582290        -0.316362        -0.766145
 H         1.928123         0.660378        -1.916389
 H         1.535671         2.039261        -0.635400
 H         4.139252         1.901205        -0.482465
 H         4.141580        -0.724850        -1.863561
 H         5.428108        -0.287912        -0.712347
 H         3.950590        -1.942253         0.557413
 H         4.014214         0.420238         1.809601
