19
Iteration:   225charge 0 multiplicity 1
 C        -0.008548         0.012800        -0.119228
 C         1.456830        -0.014850         0.040431
 C         2.138124         1.042437        -0.868747
 C         3.623878         0.968658        -0.435565
 C         4.168108        -0.370376        -1.061689
 C         3.474306        -1.076782         0.176437
 O         2.040645        -1.263354        -0.208861
 C         3.339707         0.251714         1.034962
 O         1.947446         0.464582         1.368867
 H        -0.532077        -0.601341         0.590692
 H        -0.459848         1.057820        -0.254165
 H        -0.151638        -0.472883        -1.093241
 H         1.979923         0.860550        -1.963735
 H         1.629838         2.011972        -0.683959
 H         4.310318         1.854359        -0.407030
 H         3.666215        -0.638075        -2.010231
 H         5.278356        -0.511175        -1.274515
 H         3.925258        -2.108317         0.556122
 H         3.958921         0.392779         1.876308
