19
Iteration:  1081
 C        -0.045641        -0.100566         0.025063
 C         1.434447         0.103806        -0.084390
 C         2.188447         1.132805        -0.845637
 C         3.667430         0.944411        -0.345732
 C         4.231165        -0.443740        -0.942406
 C         3.439143        -1.146506         0.141504
 O         2.031716        -1.189914        -0.342757
 C         3.300138         0.233453         0.982482
 O         1.919729         0.478271         1.282338
 H        -0.359294        -1.023763         0.495087
 H        -0.492381         0.618289         0.611954
 H        -0.517697        -0.144062        -0.966394
 H         2.171326         0.980287        -1.975404
 H         1.920160         2.164026        -0.619536
 H         4.303816         1.764729        -0.451277
 H         3.981147        -0.669542        -1.985605
 H         5.317202        -0.462473        -0.737904
 H         3.681674        -2.183030         0.608958
 H         3.910210         0.489896         1.897675
