19
Iteration:  3379charge 0 multiplicity 1
 C        -0.009723        -0.034587        -0.178273
 C         1.521573         0.060462         0.068974
 C         2.177685         1.202680        -0.794172
 C         3.604618         0.942604        -0.445805
 C         4.213527        -0.393373        -1.006346
 C         3.362184        -1.122634         0.171723
 O         2.035875        -1.258731        -0.246184
 C         3.336803         0.252766         0.948967
 O         1.933418         0.357724         1.366772
 H        -0.455520        -0.761845         0.489409
 H        -0.391692         0.916942        -0.007414
 H        -0.255604        -0.164712        -1.215012
 H         1.800012         1.108451        -1.866885
 H         1.718680         2.214881        -0.461440
 H         4.243315         1.821269        -0.526712
 H         3.962244        -0.891463        -1.959301
 H         5.269471        -0.357036        -0.854571
 H         3.805828        -2.076902         0.620021
 H         4.036974         0.535061         1.762129
