19
Iteration:  1374
 C        -0.122210         0.090377         0.045004
 C         1.436439         0.111751         0.028776
 C         2.115218         1.078385        -0.914649
 C         3.618883         0.953685        -0.379616
 C         4.405180        -0.270127        -0.896193
 C         3.331260        -1.158909         0.082253
 O         2.050508        -1.242900        -0.307263
 C         3.363411         0.159604         0.891625
 O         1.957372         0.308100         1.313040
 H        -0.785145        -0.437854         0.938020
 H        -0.471774         1.102245        -0.108692
 H        -0.403592        -0.389723        -0.942411
 H         2.010070         0.671540        -1.890745
 H         1.627008         2.083219        -0.875921
 H         4.226335         1.852784        -0.161524
 H         4.397868        -0.519852        -1.991982
 H         5.450009        -0.273041        -0.494741
 H         3.818764        -2.035228         0.406646
 H         3.948556         0.149539         1.826161
