19
Iteration:   445
 C        -0.056837         0.111562         0.042787
 C         1.415987         0.108792         0.040103
 C         2.167097         1.019368        -0.961755
 C         3.555175         1.007608        -0.428991
 C         4.331957        -0.268735        -0.850392
 C         3.395143        -1.066239         0.071956
 O         1.956332        -1.278436        -0.341311
 C         3.394150         0.169216         0.974894
 O         1.998450         0.264642         1.319901
 H        -0.551561        -0.455155         0.955048
 H        -0.426978         1.070307         0.057688
 H        -0.438045        -0.454588        -0.867121
 H         2.158696         0.490816        -1.921816
 H         1.677870         1.978433        -1.072461
 H         4.047200         1.934383        -0.369922
 H         4.307842        -0.501833        -1.931419
 H         5.393496        -0.114582        -0.473469
 H         3.742422        -2.098315         0.535042
 H         4.100696         0.216183         1.850591
