19
Iteration:   781charge 0 multiplicity 1
 C        -0.019656         0.087517        -0.171299
 C         1.425720         0.043267         0.027349
 C         2.170765         1.019042        -0.829620
 C         3.578644         0.945273        -0.442804
 C         4.187728        -0.281103        -0.974135
 C         3.424585        -1.128328         0.141742
 O         2.003249        -1.289075        -0.225732
 C         3.394123         0.231982         1.017308
 O         1.989557         0.395224         1.358679
 H        -0.571715        -0.576726         0.609703
 H        -0.365618         1.064677        -0.081401
 H        -0.133139        -0.429579        -1.133931
 H         2.010633         0.603248        -1.909651
 H         1.649686         2.026386        -0.839606
 H         4.195251         1.961295        -0.454864
 H         3.963185        -0.549052        -2.001378
 H         5.303566        -0.323025        -0.858923
 H         3.788779        -2.076694         0.512410
 H         4.053179         0.414536         1.900311
