19
Iteration:  2603charge 0 multiplicity 1
 C        -0.074127        -0.015654         0.045236
 C         1.355526         0.014887        -0.028211
 C         2.233367         1.113315        -0.976195
 C         3.666864         0.965128        -0.411589
 C         4.340564        -0.310618        -0.951869
 C         3.377980        -1.116063         0.085958
 O         1.987364        -1.270081        -0.222586
 C         3.332638         0.190436         1.050320
 O         1.946245         0.424793         1.271488
 H        -0.439858        -0.841826         0.710223
 H        -0.469418         0.951156         0.333978
 H        -0.481401        -0.095218        -0.957056
 H         2.075694         0.844583        -1.982043
 H         1.682043         2.027055        -0.839571
 H         4.098864         1.929267        -0.332818
 H         4.217996        -0.558190        -2.071940
 H         5.407361        -0.299223        -0.679381
 H         3.786383        -2.049500         0.540853
 H         4.110895         0.344321         1.816943
