19
Iteration:  4142charge 0 multiplicity 1
 C        -0.098572         0.032623         0.056460
 C         1.391243         0.127060        -0.028269
 C         2.177818         1.091317        -1.031163
 C         3.616467         0.941908        -0.275740
 C         4.334656        -0.279198        -0.958922
 C         3.375827        -1.118600         0.119806
 O         2.027335        -1.226810        -0.342183
 C         3.311620         0.094045         1.025563
 O         2.015874         0.376173         1.330709
 H        -0.403146        -0.804526         0.707706
 H        -0.560912         0.958050         0.368912
 H        -0.515763        -0.259896        -0.860004
 H         2.192659         0.675928        -2.044268
 H         1.664938         2.009759        -0.953832
 H         3.924567         1.930720        -0.573961
 H         4.238305        -0.506363        -2.086379
 H         5.300878        -0.189574        -0.431602
 H         3.758535        -2.119145         0.491457
 H         4.123435         0.073696         1.758447
