19
Iteration:   808charge 0 multiplicity 1
 C        -0.128775         0.019831         0.008910
 C         1.388901        -0.003145        -0.030440
 C         2.212991         1.152355        -0.931885
 C         3.660683         1.023931        -0.416830
 C         4.307431        -0.383411        -0.961062
 C         3.434678        -1.075554         0.126860
 O         2.036606        -1.272342        -0.214118
 C         3.358291         0.207245         1.002332
 O         1.923121         0.366763         1.286412
 H        -0.571564        -0.434910         0.842929
 H        -0.389350         1.195086        -0.159495
 H        -0.478718        -0.485181        -0.937488
 H         2.152608         0.886877        -1.947443
 H         1.666515         2.111309        -0.879768
 H         4.142919         1.914588        -0.340051
 H         4.101735        -0.646016        -2.022954
 H         5.335083        -0.639530        -0.748530
 H         3.709493        -2.080325         0.594230
 H         3.888750         0.198098         1.954305
