19
Iteration:  2424
 C        -0.082304        -0.134449        -0.146321
 C         1.439523         0.112532         0.020168
 C         2.237814         1.200446        -0.902617
 C         3.604462         0.890051        -0.389897
 C         4.157620        -0.359493        -1.045114
 C         3.369689        -1.072765         0.158613
 O         2.032644        -1.228488        -0.216224
 C         3.413555         0.228672         1.007713
 O         1.990939         0.401736         1.398952
 H        -0.353460        -1.055814         0.245158
 H        -0.435472         0.782429         0.358619
 H        -0.186258        -0.166330        -1.242884
 H         1.979501         0.734177        -1.929804
 H         1.578015         2.130926        -0.794290
 H         4.375058         1.730660        -0.314121
 H         3.790545        -0.527529        -2.079532
 H         5.304864        -0.351766        -0.945371
 H         3.608853        -2.060664         0.585390
 H         4.000418         0.461340         1.855714
