19
Iteration:  2283
 C        -0.056788        -0.082927        -0.125683
 C         1.506030         0.166214        -0.007316
 C         2.123496         1.226818        -0.823095
 C         3.594982         0.906999        -0.389576
 C         4.113599        -0.468685        -0.977122
 C         3.406626        -1.151011         0.222230
 O         2.098884        -1.208131        -0.353711
 C         3.388435         0.239852         1.049884
 O         1.976405         0.401404         1.330377
 H        -0.264237        -1.035284         0.340835
 H        -0.650257         0.759744         0.357487
 H        -0.373227        -0.333168        -1.161954
 H         1.927408         1.151975        -1.908453
 H         1.750935         2.183933        -0.555418
 H         4.256041         1.810961        -0.668232
 H         3.757053        -0.611847        -1.996643
 H         5.227866        -0.520794        -0.884281
 H         3.924009        -2.049071         0.689139
 H         4.048086         0.333593         1.856667
