19
Iteration:   680charge 0 multiplicity 1
 C        -0.110586         0.061418        -0.041766
 C         1.414508        -0.005622         0.019324
 C         2.162747         1.026573        -0.913385
 C         3.628048         0.996513        -0.415710
 C         4.323694        -0.380815        -0.892186
 C         3.419143        -1.054136         0.088399
 O         2.034426        -1.261517        -0.285703
 C         3.327048         0.247077         0.922728
 O         1.970752         0.382506         1.378803
 H        -0.636258        -0.635113         0.590681
 H        -0.270070         1.057621         0.473299
 H        -0.554011        -0.029823        -1.078804
 H         1.964668         0.692222        -2.005757
 H         1.621372         1.977291        -0.744871
 H         4.207909         1.988906        -0.632386
 H         4.298165        -0.507259        -1.996370
 H         5.317404        -0.626747        -0.450791
 H         3.693201        -2.046530         0.500350
 H         4.022958         0.326389         1.733378
