19
Iteration:  2847
 C        -0.072717         0.000291        -0.124959
 C         1.365551         0.103966        -0.005265
 C         2.176136         1.125186        -0.867245
 C         3.659831         0.946325        -0.407779
 C         4.221016        -0.391659        -0.996618
 C         3.398611        -1.116533         0.124542
 O         2.051160        -1.244252        -0.204542
 C         3.410754         0.250731         1.005312
 O         1.970494         0.374548         1.373026
 H        -0.426306        -0.988514         0.102833
 H        -0.736367         0.750396         0.276205
 H        -0.244556        -0.052758        -1.197975
 H         2.158967         0.849375        -1.894087
 H         1.684781         2.022432        -0.759764
 H         4.173961         1.921925        -0.446105
 H         4.042410        -0.518556        -2.037383
 H         5.352373        -0.540761        -0.852539
 H         3.698728        -2.046485         0.467185
 H         3.764363         0.326912         2.003425
