19
Iteration:  3763charge 0 multiplicity 1
 C        -0.051001         0.034164        -0.043438
 C         1.410416         0.055012        -0.017109
 C         2.204811         1.122243        -0.963964
 C         3.575214         0.966344        -0.367178
 C         4.287433        -0.293583        -0.936863
 C         3.464396        -1.078359         0.088493
 O         2.024113        -1.299959        -0.238621
 C         3.286499         0.183622         0.955055
 O         1.952149         0.360544         1.362079
 H        -0.478402        -0.769495         0.585829
 H        -0.232682         1.049837         0.277619
 H        -0.374297        -0.043901        -1.026759
 H         1.905690         0.726159        -1.937331
 H         1.700536         2.000480        -0.695765
 H         4.240866         1.831028        -0.413636
 H         4.004885        -0.592552        -1.966959
 H         5.333118        -0.469883        -0.655291
 H         3.899885        -1.985638         0.537023
 H         3.967845         0.236809         1.826617
