19
Iteration:  4135charge 0 multiplicity 1
 C        -0.111043         0.037849         0.063798
 C         1.475413         0.056714        -0.044422
 C         2.133596         1.027178        -0.953180
 C         3.585025         0.990287        -0.386764
 C         4.350513        -0.290192        -0.874160
 C         3.387210        -1.120364         0.059000
 O         2.000827        -1.205111        -0.357773
 C         3.308655         0.138283         1.009521
 O         2.018252         0.361475         1.366229
 H        -0.434684        -0.739391         0.745826
 H        -0.407330         1.103219         0.167107
 H        -0.596785        -0.185935        -0.967755
 H         1.926444         0.611963        -2.006882
 H         1.821451         2.186928        -1.006876
 H         4.250241         1.930717        -0.326273
 H         4.293033        -0.416343        -1.952444
 H         5.380438        -0.319739        -0.542003
 H         3.631152        -2.088069         0.498458
 H         4.000549         0.162830         1.855416
