19
Iteration:  2354
 C        -0.047471         0.143017         0.048239
 C         1.430528         0.017813        -0.030743
 C         2.066934         1.002053        -0.922937
 C         3.582798         0.970837        -0.383889
 C         4.299298        -0.307893        -0.915172
 C         3.424411        -1.051637         0.148900
 O         2.107731        -1.244268        -0.401102
 C         3.365117         0.193625         0.960751
 O         1.917370         0.282683         1.334359
 H        -0.350727        -0.285486         1.089035
 H        -0.177954         1.219609         0.089103
 H        -0.659721        -0.406799        -0.665311
 H         2.078149         0.758536        -2.005374
 H         1.811676         2.102575        -1.018681
 H         4.126372         1.886198        -0.338560
 H         4.232359        -0.596264        -1.976237
 H         5.313708        -0.372487        -0.536207
 H         3.497027        -2.038192         0.694306
 H         3.990425         0.324801         1.952485
