19
Iteration:  1151charge 0 multiplicity 1
 C        -0.060335         0.116798        -0.066893
 C         1.438031         0.067945         0.005354
 C         2.225703         1.130649        -0.919581
 C         3.595800         0.919664        -0.380067
 C         4.221711        -0.270795        -0.958754
 C         3.477999        -1.116697         0.131501
 O         2.059467        -1.292384        -0.196863
 C         3.310299         0.172125         0.955363
 O         1.923822         0.296759         1.285466
 H        -0.469962        -0.514453         0.754689
 H        -0.452414         1.158385         0.274627
 H        -0.446036        -0.321472        -0.993885
 H         2.183060         0.880124        -1.983121
 H         1.592445         2.017012        -0.781699
 H         4.127868         1.913679        -0.359815
 H         3.867757        -0.523607        -1.961787
 H         5.296294        -0.412170        -0.749995
 H         3.821660        -2.060849         0.494393
 H         3.960600         0.378020         1.772419
