19
Iteration:   113charge 0 multiplicity 1
 C        -0.109376        -0.019119        -0.135240
 C         1.386234         0.111689         0.171107
 C         2.100137         1.051565        -0.827225
 C         3.627614         0.959309        -0.477822
 C         4.242429        -0.377027        -0.976343
 C         3.453478        -1.103420         0.097143
 O         2.070500        -1.389436        -0.197180
 C         3.405772         0.227021         0.981172
 O         1.959478         0.573566         1.278520
 H        -0.634443        -0.901963         0.297685
 H        -0.610418         0.902739         0.216202
 H        -0.152378        -0.072264        -1.235924
 H         2.005865         0.747467        -1.856958
 H         1.827103         2.123818        -0.665125
 H         4.227871         1.877768        -0.555238
 H         3.989391        -0.690647        -2.044102
 H         5.325235        -0.507847        -0.884499
 H         3.977281        -2.056647         0.562446
 H         4.011016         0.260730         1.961737
