19
Iteration:  1630charge 0 multiplicity 1
 C        -0.069302         0.085980        -0.058868
 C         1.465366         0.052986         0.031873
 C         2.109643         1.047373        -0.946098
 C         3.616630         0.958249        -0.433250
 C         4.288360        -0.341755        -0.918807
 C         3.441625        -1.083991         0.109425
 O         1.977986        -1.218953        -0.242229
 C         3.349753         0.207369         0.996789
 O         2.003934         0.313402         1.340597
 H        -0.556003        -0.691797         0.494569
 H        -0.606044         1.053635         0.193685
 H        -0.575698        -0.011999        -1.089484
 H         2.081332         0.678978        -1.961541
 H         1.716614         1.999931        -0.861412
 H         4.260276         1.839847        -0.443090
 H         4.122353        -0.480351        -1.968280
 H         5.360984        -0.359203        -0.718096
 H         3.794144        -2.062699         0.558451
 H         3.990012         0.232456         1.937516
