19
Iteration:   825charge 0 multiplicity 1
 C         0.006665         0.003339         0.023034
 C         1.501365         0.105090        -0.071331
 C         2.147916         1.086202        -0.941965
 C         3.582804         0.904034        -0.374373
 C         4.234728        -0.352853        -0.856422
 C         3.403451        -1.172236         0.148900
 O         2.015145        -1.213158        -0.318228
 C         3.261530         0.196278         0.997227
 O         1.952588         0.423236         1.240673
 H        -0.113279        -0.553114         1.030622
 H        -0.457920         0.887299         0.247588
 H        -0.430142        -0.663071        -0.686534
 H         1.984319         0.970254        -2.059159
 H         1.993268         2.153215        -0.613957
 H         4.267327         1.858482        -0.498296
 H         4.234939        -0.660083        -1.906378
 H         5.305921        -0.174851        -0.586044
 H         3.832336        -2.083636         0.518148
 H         3.954455         0.492024         1.772828
