19
Iteration:  1401
 C        -0.064118         0.109359         0.071496
 C         1.474050        -0.023122        -0.117911
 C         2.179934         1.044753        -0.901583
 C         3.607214         0.957460        -0.391432
 C         4.321047        -0.272039        -0.868176
 C         3.393676        -1.134119         0.081283
 O         1.965682        -1.253156        -0.371474
 C         3.336965         0.254932         1.002980
 O         1.961483         0.326340         1.350824
 H        -0.438951        -0.347704         0.931232
 H        -0.477394         1.157972         0.092800
 H        -0.531338        -0.336872        -0.800533
 H         2.063194         0.731823        -1.982837
 H         1.659816         1.976854        -0.717249
 H         4.211445         1.869390        -0.385944
 H         4.143139        -0.538332        -1.899250
 H         5.372109        -0.359235        -0.470227
 H         3.931629        -2.123380         0.228386
 H         3.967080         0.374594         1.896058
