19
Iteration:  4450
 C        -0.096005         0.013381        -0.102225
 C         1.448251         0.078249        -0.038549
 C         2.186783         1.145485        -0.847408
 C         3.603697         0.955228        -0.343144
 C         4.203995        -0.391070        -0.967294
 C         3.452043        -1.177329         0.120946
 O         2.043400        -1.201076        -0.265089
 C         3.412682         0.267421         1.007843
 O         1.944525         0.331749         1.286897
 H        -0.318939        -0.538143         0.818208
 H        -0.425771         1.083970         0.014380
 H        -0.387561        -0.435979        -1.107639
 H         1.869712         0.865476        -1.854590
 H         1.593130         1.924435        -0.506567
 H         4.148639         1.881418        -0.337796
 H         3.944856        -0.492059        -1.940650
 H         5.255042        -0.584268        -0.737494
 H         3.561265        -2.183733         0.593820
 H         4.140625         0.517873         1.830779
