19
Iteration:  4352charge 0 multiplicity 1
 C        -0.085208         0.040869        -0.136945
 C         1.454559         0.007499        -0.058506
 C         2.173102         1.124048        -0.925172
 C         3.636341         0.954819        -0.391025
 C         4.133659        -0.323335        -1.011676
 C         3.443377        -1.099064         0.215695
 O         2.037162        -1.242827        -0.240763
 C         3.372228         0.174626         1.073747
 O         1.973094         0.346050         1.354878
 H        -0.325600        -0.791613         0.454920
 H        -0.140558         1.020418         0.320298
 H        -0.483862         0.032041        -1.170608
 H         2.199943         1.050602        -1.998897
 H         1.767877         2.044305        -0.613736
 H         4.152199         1.896253        -0.404427
 H         3.746948        -0.642841        -2.081636
 H         5.268251        -0.345550        -0.976458
 H         3.812752        -2.050293         0.623786
 H         4.022249         0.403250         1.917226
