19
Iteration:  1786charge 0 multiplicity 1
 C        -0.083192        -0.041737         0.109144
 C         1.492659         0.080687        -0.028258
 C         2.184150         1.118427        -0.974864
 C         3.641585         1.025815        -0.358173
 C         4.296227        -0.383653        -0.897259
 C         3.374611        -1.124592         0.139333
 O         1.992161        -1.254045        -0.341881
 C         3.317363         0.250979         0.980979
 O         1.933058         0.415662         1.248066
 H        -0.405988        -0.610288         1.069223
 H        -0.617929         0.923837         0.056393
 H        -0.324107        -0.686459        -0.735018
 H         2.120165         0.805605        -1.933909
 H         1.997323         2.151086        -0.942362
 H         4.328948         1.940067        -0.519227
 H         4.134097        -0.780530        -1.936167
 H         5.273568        -0.636077        -0.579341
 H         3.751979        -2.081620         0.611421
 H         3.975820         0.110377         1.839759
