19
Iteration:  2435charge 0 multiplicity 1
 C        -0.057671        -0.029970        -0.132311
 C         1.439003         0.044773        -0.042054
 C         2.131430         1.118737        -0.856932
 C         3.612619         0.969813        -0.415802
 C         4.177038        -0.409624        -1.006799
 C         3.494812        -1.102200         0.148168
 O         2.069072        -1.192426        -0.175409
 C         3.293745         0.225518         0.984829
 O         1.995568         0.367025         1.379393
 H        -0.471600        -0.882974         0.297201
 H        -0.686804         0.739897         0.344507
 H        -0.458478         0.044781        -1.159524
 H         2.138775         1.038514        -2.007618
 H         1.926275         2.240970        -0.678041
 H         4.234150         1.928587        -0.467642
 H         3.805931        -0.635103        -2.038633
 H         5.317239        -0.495399        -1.049980
 H         3.833007        -2.038459         0.626911
 H         3.960295         0.286527         1.813686
