19
Iteration:  4296charge 0 multiplicity 1
 C        -0.071224        -0.069053        -0.024729
 C         1.353332         0.086721         0.042993
 C         2.127848         1.153504        -0.914423
 C         3.668124         0.950035        -0.423353
 C         4.248454        -0.420539        -0.835949
 C         3.437805        -1.096486         0.116676
 O         2.035064        -1.126920        -0.386879
 C         3.315246         0.183528         0.950481
 O         2.019302         0.363776         1.361012
 H        -0.469971        -0.675632         0.794043
 H        -0.509337         0.922592         0.120893
 H        -0.441789        -0.460691        -1.018373
 H         2.010552         0.909908        -1.976227
 H         1.740113         2.104071        -0.850183
 H         4.163903         1.922560        -0.257318
 H         4.257080        -0.826286        -1.939594
 H         5.378441        -0.596068        -0.595963
 H         3.740488        -2.071579         0.565529
 H         4.028133         0.359808         1.714930
