19
Iteration:  4346
 C        -0.038844         0.022381        -0.150536
 C         1.409365        -0.037542        -0.068182
 C         2.218531         1.127985        -0.904968
 C         3.642396         0.996084        -0.383466
 C         4.123631        -0.299718        -0.991967
 C         3.411495        -1.102867         0.172026
 O         2.053928        -1.256008        -0.211009
 C         3.393439         0.177254         1.031733
 O         1.972804         0.373964         1.357334
 H        -0.524178        -0.825082         0.489959
 H        -0.284234         1.031446         0.302133
 H        -0.610744        -0.005319        -1.065527
 H         2.254259         1.119788        -2.032673
 H         1.634897         2.143572        -0.644151
 H         4.276327         1.919544        -0.354431
 H         3.787479        -0.720533        -1.967177
 H         5.164848        -0.515311        -1.062525
 H         3.642395        -2.052636         0.665996
 H         4.036838         0.238225         1.960177
