19
Iteration:  2062
 C        -0.060341        -0.083498         0.076316
 C         1.412454         0.146268         0.032988
 C         2.209853         1.103274        -0.993843
 C         3.628882         0.953774        -0.369564
 C         4.285345        -0.366306        -0.885339
 C         3.426314        -1.164277         0.088369
 O         2.026871        -1.199413        -0.356186
 C         3.263662         0.211925         0.981797
 O         1.976907         0.434374         1.300395
 H        -0.379839        -1.041504         0.568519
 H        -0.522324         0.713232         0.638380
 H        -0.432906         0.162992        -0.927938
 H         2.086223         0.630239        -1.931805
 H         1.751643         2.020707        -0.940533
 H         4.212130         1.969179        -0.386583
 H         4.232433        -0.731161        -1.864249
 H         5.264558        -0.596667        -0.435621
 H         3.561290        -2.181191         0.249796
 H         3.895672         0.512684         1.836014
