19
Iteration:   204
 C        -0.041938         0.058208        -0.056674
 C         1.422963         0.115574         0.006209
 C         2.153939         1.092839        -0.957557
 C         3.575229         0.996664        -0.471327
 C         4.190542        -0.309700        -0.877837
 C         3.356852        -1.118334         0.089211
 O         2.052232        -1.323672        -0.110676
 C         3.365980         0.237475         0.909027
 O         2.032247         0.292290         1.309965
 H        -0.360236        -0.658928         0.729546
 H        -0.532248         1.106027         0.016698
 H        -0.346432        -0.375020        -1.033536
 H         2.063677         0.719286        -2.027426
 H         1.676311         2.099422        -0.964715
 H         4.149230         1.960511        -0.422038
 H         4.317567        -0.559967        -1.943332
 H         5.285018        -0.270961        -0.507992
 H         3.894623        -2.072781         0.625029
 H         3.939646         0.502656         1.736523
