19
Iteration:  3051charge 0 multiplicity 1
 C        -0.035797         0.094396         0.092243
 C         1.431992         0.049730        -0.022784
 C         2.182222         1.058705        -0.935183
 C         3.711597         1.012638        -0.253510
 C         4.266498        -0.282250        -0.940520
 C         3.420970        -1.146837         0.162260
 O         2.045830        -1.317188        -0.372689
 C         3.259108         0.178638         0.951265
 O         1.883834         0.378754         1.189570
 H        -0.321683        -0.727895         0.758586
 H        -0.072207         1.156187         0.515418
 H        -0.692528         0.253141        -0.781413
 H         2.219493         0.794646        -2.002876
 H         1.505740         1.821140        -0.880671
 H         4.186625         2.021018        -0.006818
 H         4.116177        -0.619460        -1.945693
 H         5.268514        -0.402599        -0.557164
 H         3.898298        -2.178955         0.474889
 H         3.897779         0.141075         1.786608
