19
Iteration:  3590charge 0 multiplicity 1
 C        -0.076635        -0.116538         0.111808
 C         1.414671         0.078459        -0.082584
 C         2.247962         1.134340        -0.963611
 C         3.701051         0.962980        -0.389937
 C         4.328828        -0.380525        -0.862329
 C         3.354085        -1.111103         0.138618
 O         1.964489        -1.184606        -0.349618
 C         3.311182         0.197637         0.986939
 O         1.921662         0.424602         1.293276
 H        -0.196251        -1.016088         0.725917
 H        -0.583023         0.749880         0.541551
 H        -0.711967        -0.191845        -0.738773
 H         2.063573         0.902660        -2.038855
 H         1.747777         2.151338        -1.000638
 H         4.250871         1.935976        -0.551145
 H         4.257645        -0.582479        -1.876638
 H         5.350702        -0.502664        -0.529853
 H         3.828918        -2.039606         0.474499
 H         4.157729         0.399304         1.711181
