19
Iteration:  4464
 C        -0.005807         0.048328        -0.157392
 C         1.464640         0.056160         0.060756
 C         2.058760         1.168238        -0.810323
 C         3.600768         0.935410        -0.423251
 C         4.228777        -0.368006        -0.944744
 C         3.393375        -1.121677         0.109512
 O         2.041661        -1.261671        -0.215603
 C         3.319749         0.185380         0.946722
 O         2.014478         0.356077         1.329144
 H        -0.625476        -0.593697         0.478430
 H        -0.454351         1.022796        -0.229228
 H        -0.230925        -0.385740        -1.079992
 H         2.002204         1.134531        -1.836609
 H         1.881833         2.195450        -0.549565
 H         4.251773         1.798077        -0.447810
 H         4.216782        -0.728067        -2.039495
 H         5.281616        -0.321541        -0.731495
 H         3.861648        -1.992924         0.472814
 H         3.914620         0.337224         1.861848
