19
Iteration:  1013
 C        -0.083282         0.056103        -0.057816
 C         1.439374         0.006752         0.052330
 C         2.166814         1.065683        -0.883104
 C         3.614272         1.027677        -0.386344
 C         4.267456        -0.355904        -0.873248
 C         3.411564        -1.121408         0.159905
 O         1.986337        -1.320247        -0.363557
 C         3.352257         0.262067         0.951355
 O         2.000413         0.413688         1.291370
 H        -0.510261        -0.424042         0.717214
 H        -0.435175         1.143528         0.024751
 H        -0.342182        -0.485941        -0.969265
 H         2.084569         0.697415        -1.857285
 H         1.560052         2.043191        -0.739740
 H         4.207917         1.957432        -0.303940
 H         4.068748        -0.633997        -1.964318
 H         5.330448        -0.342873        -0.692726
 H         3.926700        -1.978034         0.642641
 H         4.021110         0.062252         1.823380
