19
Iteration:   615
 C        -0.130515        -0.127425        -0.046407
 C         1.401852         0.107430         0.023248
 C         2.175925         1.081671        -0.840365
 C         3.685356         0.881783        -0.379657
 C         4.321820        -0.385007        -0.956697
 C         3.421404        -1.119109         0.121324
 O         1.959776        -1.187472        -0.300655
 C         3.340775         0.204733         0.950684
 O         1.978099         0.500984         1.312395
 H        -0.502061        -0.644986         0.811653
 H        -0.755698         0.789254        -0.086055
 H        -0.255179        -0.760127        -0.955131
 H         2.053999         1.161247        -1.971912
 H         1.996824         2.087077        -0.437494
 H         4.353791         1.831714        -0.449741
 H         3.980187        -0.413420        -1.993830
 H         5.408529        -0.486436        -0.971231
 H         3.887845        -1.865266         0.692944
 H         3.945593         0.384395         1.793043
