19
Iteration:  4098
 C        -0.069328         0.036537        -0.081927
 C         1.390472         0.034471        -0.044153
 C         2.137376         1.222220        -0.850319
 C         3.650304         0.950459        -0.470842
 C         4.242757        -0.337701        -0.932338
 C         3.460540        -1.121380         0.150446
 O         2.057536        -1.266402        -0.290087
 C         3.319098         0.164610         1.014404
 O         1.995322         0.329977         1.313727
 H        -0.469221        -0.451312         0.821103
 H        -0.420370         0.977622         0.242237
 H        -0.501762        -0.389889        -0.926652
 H         1.888297         1.120549        -1.924035
 H         1.695493         2.146406        -0.344498
 H         4.160110         1.855030        -0.287363
 H         3.846531        -0.597398        -1.976391
 H         5.340985        -0.383144        -0.818041
 H         3.758484        -2.120122         0.620339
 H         4.007745         0.257005         1.871682
