19
Iteration:  2661charge 0 multiplicity 1
 C        -0.085588        -0.052627        -0.034242
 C         1.415604         0.082935        -0.046640
 C         2.179495         1.102178        -0.898830
 C         3.626859         0.891407        -0.437238
 C         4.269186        -0.372019        -0.902912
 C         3.395357        -1.078767         0.139212
 O         2.018117        -1.168476        -0.280246
 C         3.338197         0.219356         0.974400
 O         2.000866         0.428066         1.328932
 H        -0.411572        -1.034189         0.396247
 H        -0.487941         0.764734         0.730613
 H        -0.404716        -0.279893        -1.119121
 H         1.866774         0.705497        -1.887519
 H         1.738139         2.045334        -0.640245
 H         4.208888         1.894956        -0.565993
 H         4.220386        -0.782580        -1.896242
 H         5.350807        -0.511202        -0.484541
 H         3.673631        -2.071732         0.446164
 H         3.995565         0.440263         1.800419
