19
Iteration:  4563charge 0 multiplicity 1
 C        -0.094803         0.003506         0.014126
 C         1.426910         0.128436        -0.053321
 C         2.112101         1.143544        -0.931852
 C         3.584181         0.919728        -0.456018
 C         4.394662        -0.338789        -0.871889
 C         3.390472        -1.179356         0.081364
 O         2.039355        -1.223539        -0.313284
 C         3.312132         0.169573         1.021413
 O         1.978656         0.366811         1.368897
 H        -0.433818        -0.976595         0.511835
 H        -0.628418         0.901475         0.391930
 H        -0.487175         0.023204        -1.017567
 H         1.883363         0.728851        -1.906617
 H         1.879200         2.272436        -0.824234
 H         4.177667         1.854868        -0.362589
 H         4.257003        -0.569467        -2.022863
 H         5.401687        -0.212851        -0.549711
 H         3.781069        -2.035518         0.599886
 H         4.095147         0.385531         1.729717
