19
Iteration:  1605charge 0 multiplicity 1
 C         0.002097         0.017916        -0.101774
 C         1.486470         0.030499         0.005319
 C         2.227324         1.119689        -0.835597
 C         3.624033         0.984351        -0.346334
 C         4.115667        -0.386077        -0.999520
 C         3.417657        -1.102349         0.121800
 O         1.994868        -1.329560        -0.219100
 C         3.335891         0.236569         0.958643
 O         1.976775         0.433621         1.312932
 H        -0.514810        -0.672623         0.582263
 H        -0.601512         0.980715        -0.109970
 H        -0.383659        -0.375472        -1.067450
 H         2.185301         0.997307        -1.996808
 H         1.871897         2.155299        -0.541813
 H         4.216849         1.845544        -0.247222
 H         3.814571        -0.411235        -2.032586
 H         5.233879        -0.516790        -0.980861
 H         3.887024        -2.002170         0.511015
 H         3.957392         0.350842         1.841878
