19
Iteration:  4434
 C        -0.056694        -0.011682         0.017496
 C         1.435465         0.035492        -0.038741
 C         2.223546         1.118222        -0.915080
 C         3.670533         0.950794        -0.369728
 C         4.219538        -0.335629        -0.927581
 C         3.390373        -1.071132         0.141239
 O         2.024636        -1.241358        -0.356087
 C         3.275100         0.182782         1.014891
 O         1.958121         0.389842         1.314051
 H        -0.382162        -0.599070         0.906719
 H        -0.489043         0.959197         0.256015
 H        -0.368747        -0.500119        -0.957287
 H         2.315690         0.931343        -2.062617
 H         1.966564         2.253441        -0.809169
 H         4.328539         1.871786        -0.364201
 H         3.721718        -0.687235        -1.947158
 H         5.348609        -0.398581        -0.855682
 H         3.827205        -2.016453         0.586118
 H         3.833190         0.210309         1.932951
