19
Iteration:  3172charge 0 multiplicity 1
 C        -0.065552         0.114034         0.021615
 C         1.414305         0.039041        -0.036120
 C         2.095199         1.020230        -0.917092
 C         3.588840         0.937315        -0.332697
 C         4.423382        -0.283617        -0.868742
 C         3.352800        -1.112976         0.011468
 O         2.027344        -1.200646        -0.316195
 C         3.318229         0.139403         0.930997
 O         1.983343         0.311541         1.325468
 H        -0.583132        -0.603773         0.820242
 H        -0.247370         1.188680         0.258867
 H        -0.611259        -0.078296        -0.954288
 H         1.950099         0.722802        -1.958837
 H         1.967370         2.033293        -0.749484
 H         4.006668         1.997957        -0.313137
 H         4.441234        -0.466619        -2.044214
 H         5.461075        -0.144495        -0.353701
 H         3.678846        -2.092483         0.603156
 H         3.960010         0.247922         1.909946
