19
Iteration:  3906
 C        -0.055114         0.044365        -0.034276
 C         1.513916         0.031439        -0.014275
 C         2.144250         1.082456        -0.808940
 C         3.642524         0.993016        -0.421641
 C         4.227529        -0.353347        -0.980985
 C         3.402674        -1.128064         0.091843
 O         2.049587        -1.244514        -0.292797
 C         3.313988         0.220013         1.054118
 O         1.943119         0.349977         1.294417
 H        -0.550979        -0.584585         0.798394
 H        -0.434181         1.095183        -0.079847
 H        -0.361784        -0.432606        -0.992480
 H         2.018273         0.907186        -1.877760
 H         1.786948         1.990289        -0.439948
 H         4.162571         2.016160        -0.439987
 H         3.827886        -0.630447        -2.013074
 H         5.350575        -0.336719        -0.842567
 H         3.790975        -2.089256         0.469346
 H         3.973134         0.521704         1.847397
