19
Iteration:  4469charge 0 multiplicity 1
 C        -0.008107         0.024519        -0.146749
 C         1.442983         0.072086         0.084663
 C         2.121225         1.165972        -0.821304
 C         3.584344         0.945801        -0.454059
 C         4.232552        -0.355388        -0.948545
 C         3.416312        -1.076806         0.131115
 O         2.006696        -1.296141        -0.234897
 C         3.327249         0.154288         0.950950
 O         2.002405         0.374676         1.362246
 H        -0.638359        -0.604014         0.488879
 H        -0.389697         1.074702        -0.292660
 H        -0.177179        -0.352957        -1.258945
 H         2.002824         1.122246        -2.017993
 H         1.784940         2.201784        -0.398060
 H         4.206089         1.886273        -0.538928
 H         4.178105        -0.740672        -1.961090
 H         5.353005        -0.308152        -0.697224
 H         3.827545        -2.129331         0.410641
 H         4.028267         0.250751         1.768862
