19
Iteration:  1602charge 0 multiplicity 1
 C         0.005252         0.019611        -0.121362
 C         1.517510         0.047290         0.017059
 C         2.203315         1.124169        -0.841544
 C         3.626894         0.941650        -0.353969
 C         4.133764        -0.357132        -0.990972
 C         3.433894        -1.109656         0.116103
 O         1.976398        -1.328179        -0.217478
 C         3.318035         0.242241         0.978520
 O         1.978564         0.437930         1.297492
 H        -0.519251        -0.676949         0.617972
 H        -0.589401         0.887925        -0.054402
 H        -0.359172        -0.447983        -0.985800
 H         2.181925         1.079704        -1.958845
 H         1.796884         2.177462        -0.495336
 H         4.311253         1.838346        -0.246287
 H         3.744246        -0.447286        -2.089872
 H         5.229869        -0.530084        -1.059917
 H         3.829759        -1.987878         0.605753
 H         3.953787         0.277537         1.829068
