19
Iteration:  4480charge 0 multiplicity 1
 C        -0.072085         0.002636        -0.173668
 C         1.435603         0.041191         0.059284
 C         2.224249         1.130464        -0.856274
 C         3.618075         0.997422        -0.475374
 C         4.233913        -0.325197        -0.954080
 C         3.433822        -1.119884         0.103638
 O         1.941477        -1.292553        -0.276807
 C         3.407683         0.188234         1.003735
 O         1.963205         0.400251         1.431072
 H        -0.576650        -0.611667         0.570677
 H        -0.481238         1.036261        -0.029182
 H        -0.050155        -0.459248        -1.257893
 H         1.777528         1.004540        -1.960149
 H         1.722967         2.060746        -0.403502
 H         4.186823         1.979806        -0.517683
 H         4.005115        -0.634249        -1.953399
 H         5.361225        -0.417283        -0.675215
 H         3.712687        -2.130382         0.638304
 H         4.212125         0.295147         1.722561
