19
Iteration:  2067charge 0 multiplicity 1
 C        -0.068069        -0.049958         0.093026
 C         1.448017         0.127954         0.000295
 C         2.169999         1.061120        -1.004901
 C         3.649376         0.955259        -0.384168
 C         4.312907        -0.354298        -0.885503
 C         3.422675        -1.139175         0.094529
 O         2.026029        -1.159434        -0.346458
 C         3.270045         0.157871         1.013333
 O         1.973704         0.412442         1.304256
 H        -0.552536        -0.986192         0.461630
 H        -0.552761         0.795178         0.651108
 H        -0.658085        -0.006005        -0.857491
 H         2.000874         0.689261        -2.073632
 H         1.819183         2.194818        -1.022815
 H         4.059067         1.921357        -0.416552
 H         4.318057        -0.725913        -1.979207
 H         5.276821        -0.430361        -0.332516
 H         3.595523        -2.251121         0.412024
 H         3.964826         0.476096         1.796736
