19
Iteration:  2703charge 0 multiplicity 1
 C         0.028545         0.048164        -0.156819
 C         1.467573         0.039410        -0.016556
 C         2.123796         1.070617        -0.893663
 C         3.566139         0.958837        -0.391598
 C         4.118586        -0.358796        -1.039890
 C         3.416564        -1.111126         0.141262
 O         2.074361        -1.254939        -0.140419
 C         3.367832         0.213579         1.079045
 O         1.956477         0.367175         1.286692
 H        -0.456482        -0.535290         0.630006
 H        -0.280179         1.160919         0.023207
 H        -0.528079        -0.274092        -1.052610
 H         2.376421         0.937983        -1.920461
 H         1.842824         2.069027        -0.715590
 H         4.138258         1.898226        -0.201237
 H         3.848365        -0.596537        -2.093302
 H         5.256935        -0.289398        -0.911888
 H         3.866725        -2.048673         0.481067
 H         4.093683         0.375077         1.849139
