19
Iteration:  4102charge 0 multiplicity 1
 C        -0.079434         0.058179        -0.028484
 C         1.427736         0.047658        -0.061648
 C         2.141625         1.182344        -0.833918
 C         3.604484         0.966344        -0.459720
 C         4.263668        -0.355978        -0.937212
 C         3.434803        -1.113357         0.122396
 O         2.067782        -1.292082        -0.300293
 C         3.325849         0.196895         1.005135
 O         1.983720         0.311472         1.313468
 H        -0.539125        -0.489408         0.819541
 H        -0.516757         1.091866         0.185835
 H        -0.433926        -0.381253        -1.047368
 H         1.851812         1.072167        -1.950577
 H         1.793799         2.236865        -0.341404
 H         4.292701         1.870100        -0.306014
 H         4.067393        -0.566143        -2.016275
 H         5.316909        -0.376313        -0.776718
 H         3.705428        -2.003642         0.716519
 H         3.938387         0.270160         1.907366
