19
Iteration:  4541
 C        -0.078700        -0.018917         0.092520
 C         1.436522         0.001358        -0.055097
 C         2.178979         1.081345        -0.885556
 C         3.617662         0.983395        -0.371247
 C         4.313730        -0.413076        -0.844012
 C         3.376041        -1.063921         0.077099
 O         2.012046        -1.199730        -0.392586
 C         3.360503         0.245926         0.958981
 O         1.946733         0.382768         1.248499
 H        -0.340951        -0.932952         0.736175
 H        -0.510051         0.925934         0.463363
 H        -0.569964        -0.017798        -0.883695
 H         2.162675         0.832417        -1.919147
 H         1.899678         2.135165        -0.517210
 H         4.111604         1.971242        -0.333475
 H         4.253025        -0.757726        -1.967737
 H         5.239241        -0.506364        -0.310586
 H         3.657816        -1.960272         0.629063
 H         4.020536         0.414921         1.810759
