19
Iteration:   773
 C         0.028053         0.045066        -0.151814
 C         1.494887        -0.007316         0.037626
 C         2.081530         1.097240        -0.906510
 C         3.550560         1.016349        -0.425333
 C         4.206083        -0.359904        -0.999204
 C         3.416912        -1.157170         0.139585
 O         2.021147        -1.229624        -0.194479
 C         3.363309         0.168332         1.069380
 O         1.983410         0.418716         1.344344
 H        -0.588818        -0.615852         0.533777
 H        -0.338081         1.146236        -0.059913
 H        -0.097174        -0.299963        -1.176203
 H         2.033218         0.731938        -1.892293
 H         1.768972         2.174986        -0.835025
 H         4.006812         1.961773        -0.597468
 H         4.046588        -0.684921        -2.042957
 H         5.254379        -0.354803        -0.758549
 H         3.822068        -2.136561         0.463075
 H         4.044498         0.246623         1.896996
