19
Iteration:  3010charge 0 multiplicity 1
 C        -0.091541        -0.002086        -0.052012
 C         1.425610         0.134066         0.065348
 C         2.143302         1.131331        -0.839645
 C         3.585415         0.990943        -0.420814
 C         4.354813        -0.446721        -0.869726
 C         3.371390        -1.123096         0.065553
 O         2.043761        -1.148722        -0.334094
 C         3.359060         0.150888         0.913007
 O         1.961725         0.352523         1.348019
 H        -0.283086        -1.040001         0.399366
 H        -0.705050         0.811220         0.282902
 H        -0.321248        -0.246585        -1.115342
 H         2.075604         0.698490        -1.864989
 H         1.755460         2.295590        -0.816111
 H         4.175304         1.915676        -0.335881
 H         4.287060        -0.817053        -1.880636
 H         5.469361        -0.335777        -0.640095
 H         3.483219        -2.044279         0.626427
 H         3.921069         0.308729         1.866082
