19
Iteration:  4972charge 0 multiplicity 1
 C        -0.000467        -0.011317         0.030048
 C         1.408589         0.075281        -0.098761
 C         2.236204         1.139083        -0.858038
 C         3.606505         0.909985        -0.355667
 C         4.245709        -0.313560        -0.864362
 C         3.374250        -1.189797         0.074829
 O         2.031042        -1.249253        -0.357650
 C         3.315995         0.243003         0.941760
 O         1.925976         0.398930         1.316627
 H        -0.313221        -0.752387         0.841853
 H        -0.404874         0.929735         0.534311
 H        -0.402405        -0.196276        -0.930497
 H         2.129176         0.949875        -1.981936
 H         1.875187         2.101346        -0.526800
 H         4.164912         1.925296        -0.420965
 H         4.166395        -0.585099        -1.990775
 H         5.263634        -0.399087        -0.537718
 H         3.770083        -2.165592         0.437680
 H         3.916581         0.390537         1.872269
