19
Iteration:  2897charge 0 multiplicity 1
 C        -0.096612        -0.012896         0.089590
 C         1.330830         0.107341        -0.004230
 C         2.203496         1.157166        -0.892246
 C         3.668801         0.941028        -0.414242
 C         4.295237        -0.397318        -0.850328
 C         3.448351        -1.123466         0.101094
 O         2.072046        -1.250966        -0.405983
 C         3.317758         0.202909         0.960007
 O         1.907381         0.387612         1.242622
 H        -0.341487        -0.673693         0.951023
 H        -0.520093         1.006897         0.421089
 H        -0.586234        -0.451496        -0.807819
 H         1.979788         0.949524        -1.984752
 H         1.879697         2.288123        -0.662708
 H         4.224412         1.902367        -0.368084
 H         4.413834        -0.762840        -1.891827
 H         5.294011        -0.408124        -0.414226
 H         3.782616        -2.090623         0.676989
 H         3.908697         0.381888         1.891691
