19
Iteration:  4082charge 0 multiplicity 1
 C        -0.053449        -0.068439        -0.073121
 C         1.525299         0.069887        -0.032975
 C         2.175657         1.173633        -0.825972
 C         3.574227         0.997622        -0.292111
 C         4.132450        -0.398761        -1.002046
 C         3.440816        -1.141935         0.113192
 O         2.028534        -1.193107        -0.273423
 C         3.381308         0.181031         0.986895
 O         1.951612         0.393196         1.321000
 H        -0.451434        -0.761850         0.680325
 H        -0.521887         0.971462        -0.038603
 H        -0.285529        -0.436081        -1.153440
 H         2.148363         1.136195        -1.909800
 H         1.876277         2.129133        -0.528100
 H         4.384616         1.757819        -0.440447
 H         3.798860        -0.690764        -1.974680
 H         5.238532        -0.493586        -1.102205
 H         3.754511        -2.122105         0.436903
 H         3.980881         0.380288         1.872784
