19
Iteration:  1309
 C        -0.111456        -0.050641        -0.119646
 C         1.466589         0.072035        -0.061962
 C         2.171718         1.235650        -0.817116
 C         3.638417         0.900683        -0.375457
 C         4.171002        -0.349623        -1.016276
 C         3.407677        -1.117696         0.144334
 O         2.062620        -1.204403        -0.222676
 C         3.374442         0.140159         1.011656
 O         1.989799         0.416106         1.326162
 H        -0.416364        -1.048511         0.410534
 H        -0.734361         0.641404         0.357711
 H        -0.373651        -0.146027        -1.193967
 H         2.053527         1.078214        -1.842837
 H         1.847552         2.192809        -0.535397
 H         4.254315         1.783096        -0.535577
 H         3.980398        -0.787623        -2.011580
 H         5.193306        -0.309395        -0.670616
 H         3.507715        -2.100250         0.489029
 H         4.153697         0.173557         1.778833
