19
Iteration:   359
 C        -0.131400        -0.061535        -0.115185
 C         1.419010         0.139478         0.075025
 C         2.156486         1.088914        -0.786291
 C         3.622790         0.952709        -0.382227
 C         4.205661        -0.393386        -1.009337
 C         3.395146        -1.069614         0.126740
 O         2.064376        -1.274274        -0.305003
 C         3.351873         0.171387         0.947016
 O         2.018584         0.500042         1.338738
 H        -0.304562        -1.073269         0.447930
 H        -0.754991         0.662586         0.155149
 H        -0.017463        -0.124366        -1.222023
 H         1.948511         0.849385        -1.818787
 H         1.734122         2.079236        -0.644512
 H         4.259270         1.746985        -0.268216
 H         4.042668        -0.604196        -2.068419
 H         5.304332        -0.400618        -0.911731
 H         3.950233        -1.911877         0.721928
 H         3.996806         0.061311         1.887064
