19
Iteration:  4276charge 0 multiplicity 1
 C        -0.118421         0.021966         0.103386
 C         1.466498         0.074027        -0.036932
 C         2.194371         1.111649        -0.870679
 C         3.616412         0.939917        -0.397045
 C         4.313855        -0.390377        -0.834435
 C         3.349032        -1.122484         0.151965
 O         2.052733        -1.217478        -0.440280
 C         3.337223         0.263576         0.996739
 O         1.938901         0.333130         1.256305
 H        -0.245803        -0.659424         0.892185
 H        -0.535285         1.029784         0.144588
 H        -0.463735        -0.507749        -0.819867
 H         2.021092         0.905339        -1.943822
 H         1.713442         2.111504        -0.644422
 H         4.093604         1.858265        -0.623615
 H         4.330755        -0.566145        -2.043766
 H         5.424278        -0.229449        -0.761237
 H         3.546238        -2.050371         0.691061
 H         4.062850         0.303348         1.777570
