19
Iteration:  3826charge 0 multiplicity 1
 C        -0.024563        -0.038315        -0.013404
 C         1.454482         0.069648        -0.026661
 C         2.117135         1.231738        -0.843313
 C         3.639288         0.925010        -0.385362
 C         4.209075        -0.454689        -0.926514
 C         3.469486        -1.098792         0.126462
 O         2.019649        -1.213027        -0.292773
 C         3.334088         0.240813         1.022349
 O         1.946811         0.338434         1.216434
 H        -0.281492        -1.043492         0.527323
 H        -0.652011         0.796449         0.484382
 H        -0.481759        -0.159165        -1.039662
 H         2.006759         1.274336        -1.908128
 H         2.057373         2.196674        -0.589462
 H         4.229109         1.822914        -0.397140
 H         4.001380        -0.765918        -2.027381
 H         5.302863        -0.388813        -0.796582
 H         3.812314        -2.007280         0.668197
 H         3.875598         0.586992         1.938515
