19
Iteration:  2799charge 0 multiplicity 1
 C        -0.078127         0.031375        -0.023671
 C         1.475380         0.069197        -0.021622
 C         2.211041         1.111040        -0.943330
 C         3.612083         0.971966        -0.378288
 C         4.278145        -0.375831        -0.906680
 C         3.425416        -1.116450         0.118125
 O         2.037639        -1.242051        -0.253980
 C         3.356496         0.244682         1.009379
 O         1.917201         0.335521         1.263353
 H        -0.580305        -0.669799         0.640185
 H        -0.421408         1.009147         0.413897
 H        -0.676582        -0.149490        -0.909277
 H         1.905935         0.783709        -1.975945
 H         1.636788         2.091889        -0.679944
 H         4.277378         1.849291        -0.453476
 H         4.007331        -0.623218        -1.987539
 H         5.370723        -0.561391        -0.823277
 H         3.783896        -2.144659         0.487769
 H         3.780327         0.512441         1.974522
