19
Iteration:  2078
 C        -0.133289         0.035651         0.078220
 C         1.413662         0.064034        -0.057645
 C         2.134188         1.039940        -0.987290
 C         3.586286         0.913624        -0.445024
 C         4.382209        -0.337949        -0.832457
 C         3.368725        -1.079940         0.120201
 O         2.027738        -1.149097        -0.334955
 C         3.379510         0.149257         0.990685
 O         1.945336         0.361948         1.304204
 H        -0.224851        -0.902002         0.700680
 H        -0.408086         0.908331         0.733195
 H        -0.552405         0.015101        -0.945052
 H         2.074382         0.685708        -2.070386
 H         1.800871         2.166856        -0.856234
 H         4.161459         1.788318        -0.405739
 H         4.484287        -0.512220        -1.973731
 H         5.444993        -0.232329        -0.551265
 H         3.763872        -2.019136         0.663461
 H         4.027339         0.107982         1.876612
