19
Iteration:  1725charge 0 multiplicity 1
 C        -0.049453        -0.011792        -0.199905
 C         1.415006         0.039637         0.052322
 C         2.169227         1.094255        -0.844966
 C         3.624798         0.927715        -0.396032
 C         4.175175        -0.351971        -0.966780
 C         3.412007        -1.134518         0.184578
 O         1.986120        -1.231052        -0.193732
 C         3.375009         0.277893         0.932109
 O         2.055822         0.385975         1.352036
 H        -0.496859        -0.662510         0.482324
 H        -0.507157         1.006852        -0.076830
 H        -0.314626        -0.381760        -1.202817
 H         1.915479         0.814200        -1.976471
 H         1.766749         2.138192        -0.591253
 H         4.063386         1.867741        -0.518185
 H         4.062796        -0.448223        -2.051734
 H         5.324218        -0.289441        -0.813145
 H         3.484156        -2.085863         0.643440
 H         4.294012         0.292434         1.530823
