19
Iteration:  3400charge 0 multiplicity 1
 C        -0.103096         0.067483        -0.111683
 C         1.438847         0.006546        -0.059518
 C         2.169155         1.099436        -0.850007
 C         3.616096         0.971539        -0.320093
 C         4.160123        -0.321854        -0.955117
 C         3.471539        -1.104741         0.160492
 O         2.058953        -1.309802        -0.195308
 C         3.343741         0.186486         1.006531
 O         2.023270         0.404501         1.239076
 H        -0.430778        -0.797413         0.483657
 H        -0.468202         0.983911         0.241873
 H        -0.382071         0.066688        -1.155460
 H         2.004563         1.138661        -2.000149
 H         1.653757         2.136160        -0.653447
 H         4.085623         1.953994        -0.409387
 H         3.759687        -0.583785        -1.983242
 H         5.154298        -0.611715        -0.990022
 H         3.915615        -2.118455         0.468189
 H         3.962517         0.280787         1.940006
