19
Iteration:    30
 C        -0.059489        -0.152969         0.167941
 C         1.402778         0.138514         0.005166
 C         2.140223         1.109988        -1.010871
 C         3.662137         0.934488        -0.497040
 C         4.324183        -0.453374        -0.858612
 C         3.379946        -1.102811         0.167783
 O         2.012351        -1.141882        -0.373802
 C         3.306738         0.246147         0.976321
 O         2.008651         0.460524         1.246185
 H        -0.167085        -0.684292         1.084097
 H        -0.773411         0.798057         0.240968
 H        -0.358828        -0.798804        -0.633226
 H         1.975265         0.683952        -2.049012
 H         1.684775         2.123724        -0.888696
 H         4.318113         1.870115        -0.501072
 H         4.312480        -0.749110        -1.911012
 H         5.296181        -0.393345        -0.245562
 H         3.352088        -2.093334         0.724742
 H         3.870936         0.340528         1.886991
