19
Iteration:  3804charge 0 multiplicity 1
 C        -0.041256        -0.055644        -0.158416
 C         1.481332         0.011245         0.027026
 C         2.154054         1.134692        -0.833566
 C         3.644924         1.011142        -0.439607
 C         4.190423        -0.368366        -0.952817
 C         3.376273        -1.147221         0.136775
 O         2.040829        -1.235716        -0.260344
 C         3.297606         0.173749         0.938346
 O         2.004369         0.459445         1.411484
 H        -0.318132        -1.077906         0.285767
 H        -0.559504         0.840549         0.390456
 H        -0.402138        -0.018745        -1.248241
 H         2.062392         1.071403        -1.902198
 H         1.915408         2.121273        -0.634335
 H         4.118687         1.961351        -0.348942
 H         3.876309        -0.517442        -2.071737
 H         5.299593        -0.425776        -0.812640
 H         3.684480        -2.084713         0.673060
 H         4.082792         0.262060         1.728008
