19
Iteration:   881charge 0 multiplicity 1
 C        -0.004411        -0.030917        -0.030852
 C         1.454868         0.069179         0.021462
 C         2.145483         1.113017        -0.958393
 C         3.615297         0.964812        -0.377132
 C         4.273822        -0.388679        -0.902246
 C         3.347153        -1.128376         0.136059
 O         2.031948        -1.290538        -0.240885
 C         3.315172         0.236685         0.945997
 O         1.949765         0.452025         1.285792
 H        -0.290263        -0.945768         0.466468
 H        -0.430747         0.883525         0.410410
 H        -0.357271        -0.081479        -1.024554
 H         2.072246         0.908794        -2.013359
 H         1.674963         2.161664        -0.827672
 H         4.256952         1.888350        -0.373293
 H         4.180559        -0.784451        -1.938161
 H         5.332763        -0.315173        -0.679742
 H         3.785757        -1.993078         0.634381
 H         4.018009         0.490549         1.694977
