19
Iteration:   390
 C         0.024569        -0.110637        -0.028107
 C         1.477422         0.092953        -0.069334
 C         2.179530         1.236536        -0.895251
 C         3.659278         1.027688        -0.393631
 C         4.142758        -0.442304        -0.916127
 C         3.336805        -1.103244         0.144081
 O         2.009301        -1.197977        -0.253299
 C         3.369779         0.250055         0.925941
 O         1.966175         0.314333         1.316996
 H        -0.194829        -0.876715         0.836205
 H        -0.466074         0.796630         0.050163
 H        -0.311410        -0.520677        -1.044628
 H         1.962217         1.145652        -1.983099
 H         1.605098         2.096875        -0.574413
 H         4.345416         1.804951        -0.124909
 H         3.886530        -0.514263        -1.974571
 H         5.272415        -0.532600        -0.777368
 H         3.695146        -2.105992         0.674059
 H         4.037976         0.261245         1.772011
