19
Iteration:  1633charge 0 multiplicity 1
 C        -0.065764         0.110648        -0.034758
 C         1.437732         0.062909         0.022825
 C         2.127734         1.032586        -0.949276
 C         3.581258         0.943681        -0.433970
 C         4.311613        -0.369974        -0.907892
 C         3.455198        -1.079507         0.127785
 O         1.976024        -1.226560        -0.264924
 C         3.336843         0.194739         0.975330
 O         2.006291         0.326694         1.345071
 H        -0.469268        -0.804139         0.526483
 H        -0.593907         0.988504         0.185318
 H        -0.435035         0.029911        -1.066319
 H         1.972630         0.648309        -1.908850
 H         1.798523         2.078402        -0.818115
 H         4.229134         1.916963        -0.401680
 H         4.155177        -0.367530        -2.043277
 H         5.361575        -0.253083        -0.680015
 H         3.858170        -2.036707         0.520000
 H         3.912775         0.278832         1.891845
