19
Iteration:  4121charge 0 multiplicity 1
 C        -0.029230         0.075296         0.004337
 C         1.371179         0.028223         0.089771
 C         2.165761         1.074579        -0.885116
 C         3.643677         0.957575        -0.398536
 C         4.308322        -0.321172        -0.875365
 C         3.414112        -1.102043         0.069175
 O         2.012868        -1.227799        -0.370474
 C         3.340811         0.234843         0.923577
 O         1.937935         0.305080         1.309482
 H        -0.484068        -0.474989         0.842244
 H        -0.346815         1.029266         0.331693
 H        -0.404820        -0.305979        -0.903856
 H         2.166543         0.789360        -1.981300
 H         1.565586         2.004257        -0.636402
 H         4.000452         1.969276        -0.414314
 H         4.303217        -0.706631        -1.957515
 H         5.258101        -0.396355        -0.364583
 H         3.809603        -2.146313         0.294713
 H         4.064465         0.458068         1.712190
