19
Iteration:   420charge 0 multiplicity 1
 C        -0.120538         0.066648         0.058898
 C         1.407375         0.030741        -0.013632
 C         2.126803         1.043611        -0.896575
 C         3.645612         0.909602        -0.403168
 C         4.319718        -0.343622        -0.930072
 C         3.481664        -1.163972         0.056720
 O         2.102456        -1.230222        -0.342322
 C         3.330466         0.234067         1.012826
 O         1.897579         0.407616         1.311808
 H        -0.648699        -0.366024         0.942256
 H        -0.356477         1.188691         0.000237
 H        -0.675579        -0.437847        -0.767416
 H         1.936295         0.861328        -1.994360
 H         1.664475         1.969557        -0.528381
 H         4.206130         1.909055        -0.204380
 H         4.189946        -0.335986        -2.014188
 H         5.419628        -0.260591        -0.651635
 H         3.767409        -2.201389         0.310103
 H         3.928077         0.332481         1.857401
