19
Iteration:  2281charge 0 multiplicity 1
 C        -0.069540        -0.081266        -0.118671
 C         1.536157         0.173554         0.005236
 C         2.111144         1.210528        -0.820363
 C         3.589464         0.924356        -0.390299
 C         4.110767        -0.476682        -0.977461
 C         3.427531        -1.142353         0.221518
 O         2.097028        -1.206114        -0.355325
 C         3.382480         0.228392         1.029586
 O         1.964435         0.398592         1.327522
 H        -0.289836        -1.060521         0.300878
 H        -0.622971         0.743022         0.308093
 H        -0.369963        -0.280211        -1.120002
 H         1.986752         1.152340        -1.949612
 H         1.746144         2.218157        -0.530891
 H         4.311704         1.809703        -0.635650
 H         3.737893        -0.664511        -1.972440
 H         5.263574        -0.500383        -0.845370
 H         3.818460        -2.045248         0.716636
 H         4.102890         0.339041         1.865783
