19
Iteration:  1755charge 0 multiplicity 1
 C        -0.039428         0.069075        -0.097852
 C         1.468397        -0.000513         0.016999
 C         2.148358         1.087638        -0.890242
 C         3.598293         0.942705        -0.422089
 C         4.204605        -0.331982        -1.013072
 C         3.489814        -1.123108         0.165004
 O         2.036409        -1.275823        -0.194639
 C         3.325934         0.236969         1.050175
 O         1.942782         0.379222         1.291823
 H        -0.529216        -0.239979         0.865390
 H        -0.435460         1.111948        -0.290153
 H        -0.358615        -0.429796        -1.014762
 H         1.971672         0.919663        -1.957323
 H         1.889113         2.121118        -0.574527
 H         4.192776         1.975283        -0.644039
 H         3.859445        -0.649494        -2.070963
 H         5.320081        -0.284496        -0.834396
 H         3.699655        -2.172370         0.524123
 H         4.094557         0.246150         1.825779
