19
Iteration:  2512charge 0 multiplicity 1
 C        -0.058361        -0.103870         0.080752
 C         1.448434         0.090742        -0.019790
 C         2.238339         1.080427        -0.964170
 C         3.615983         1.005379        -0.381009
 C         4.275652        -0.376226        -0.874975
 C         3.356155        -1.094050         0.063232
 O         2.006912        -1.233373        -0.352619
 C         3.351404         0.185582         0.932885
 O         1.928732         0.482111         1.357465
 H        -0.290946        -0.709515         0.917880
 H        -0.619619         0.823032         0.137271
 H        -0.613540        -0.602747        -0.732752
 H         2.240067         0.711176        -2.039417
 H         1.849018         2.126926        -0.713445
 H         4.227597         1.899112        -0.162585
 H         4.089040        -0.586114        -1.962874
 H         5.358021        -0.514254        -0.622789
 H         3.636502        -2.097839         0.439759
 H         4.142161         0.347046         1.700114
