19
Iteration:  1448charge 0 multiplicity 1
 C        -0.061552        -0.132616        -0.137569
 C         1.489876         0.053989         0.028262
 C         2.181327         1.165616        -0.856611
 C         3.675217         0.959817        -0.365382
 C         4.227646        -0.422924        -1.000415
 C         3.315205        -1.134856         0.118383
 O         2.006572        -1.158705        -0.280737
 C         3.373096         0.244049         0.981057
 O         1.983779         0.410046         1.367549
 H        -0.359858        -0.967192         0.447446
 H        -0.563342         0.642020         0.361341
 H        -0.435554        -0.251865        -1.152997
 H         1.961559         1.134560        -1.901661
 H         2.069249         2.234401        -0.395206
 H         4.316689         1.832624        -0.644954
 H         3.910457        -0.530204        -2.068552
 H         5.240000        -0.602007        -0.746613
 H         3.493886        -2.044116         0.646688
 H         3.836073         0.561580         1.939194
