19
Iteration:  4871
 C        -0.020312        -0.064608        -0.073495
 C         1.435656         0.073629         0.042592
 C         2.204441         1.170889        -0.806087
 C         3.661861         0.978134        -0.415584
 C         4.239183        -0.351062        -0.981035
 C         3.408801        -1.144457         0.102568
 O         2.043405        -1.218337        -0.290143
 C         3.322005         0.198986         1.007496
 O         1.883064         0.390369         1.307942
 H        -0.251416        -0.756187         0.693737
 H        -0.456669         0.933044         0.089169
 H        -0.320280        -0.249152        -1.139878
 H         2.201698         1.008083        -1.896055
 H         1.807711         2.144172        -0.608073
 H         4.398814         1.757040        -0.369699
 H         3.597659        -0.639179        -1.948981
 H         5.290382        -0.605302        -1.072355
 H         3.795034        -2.056488         0.557494
 H         3.814688         0.202212         1.979177
