19
Iteration:  1942charge 0 multiplicity 1
 C         0.001239        -0.116632         0.152998
 C         1.431762         0.045601        -0.069265
 C         2.117778         1.091302        -0.936527
 C         3.685351         0.985691        -0.394357
 C         4.292584        -0.425456        -0.854369
 C         3.393479        -1.106663         0.167392
 O         2.003848        -1.184688        -0.426095
 C         3.309041         0.230906         0.963066
 O         1.908245         0.439682         1.251933
 H        -0.260544        -0.423514         1.155296
 H        -0.415451         0.943288         0.083285
 H        -0.673420        -0.497865        -0.674648
 H         2.242191         1.025103        -1.984624
 H         1.823365         2.054962        -0.687955
 H         4.314095         2.018778        -0.287299
 H         4.290326        -0.648706        -1.911538
 H         5.355118        -0.540855        -0.593176
 H         3.741728        -2.059926         0.590589
 H         3.931503         0.418068         1.824695
