19
Iteration:   587charge 0 multiplicity 1
 C        -0.019031         0.021363         0.046661
 C         1.463950         0.077385        -0.039552
 C         2.129104         1.128756        -0.979451
 C         3.562094         0.958584        -0.412012
 C         4.291280        -0.397270        -0.859232
 C         3.413506        -1.121740         0.135859
 O         1.974400        -1.208410        -0.359073
 C         3.315219         0.221940         0.978603
 O         1.989526         0.332915         1.330893
 H        -0.293291        -0.699604         0.942602
 H        -0.461828         0.962838         0.187842
 H        -0.468791        -0.502705        -0.837066
 H         2.171756         0.865384        -2.028206
 H         1.703550         2.145589        -0.907298
 H         4.229221         1.794574        -0.407690
 H         4.372071        -0.620299        -1.926039
 H         5.330314        -0.302153        -0.461142
 H         3.804499        -2.037075         0.718686
 H         4.033674         0.558326         1.799172
