19
Iteration:  4165
 C        -0.025931        -0.053723         0.037144
 C         1.450830         0.046908        -0.021537
 C         2.248188         1.149446        -0.872664
 C         3.702219         0.985054        -0.339268
 C         4.264109        -0.384300        -0.938335
 C         3.386163        -1.120418         0.064963
 O         1.995479        -1.219036        -0.305138
 C         3.246665         0.238568         0.983981
 O         1.936772         0.388322         1.265228
 H        -0.359802        -0.949919         0.556212
 H        -0.379804         0.866207         0.424194
 H        -0.550152        -0.204494        -0.891092
 H         1.928316         0.748711        -1.874163
 H         1.747462         2.106639        -0.612993
 H         4.308780         1.947429        -0.407211
 H         3.810068        -0.515112        -1.996376
 H         5.304021        -0.482332        -0.603347
 H         3.735878        -2.143573         0.408357
 H         3.995512         0.407986         1.746227
