19
Iteration:  1228charge 0 multiplicity 1
 C        -0.021649        -0.052906         0.025755
 C         1.431116         0.095907        -0.031945
 C         2.245244         1.096286        -0.904110
 C         3.660562         0.959487        -0.367293
 C         4.246793        -0.316434        -0.903914
 C         3.352825        -1.102644         0.154986
 O         1.987441        -1.215389        -0.372078
 C         3.298525         0.212482         0.946220
 O         1.973479         0.341319         1.301633
 H        -0.291117        -0.681067         0.825472
 H        -0.405294         1.043310         0.256090
 H        -0.631204        -0.286403        -0.866178
 H         1.921939         0.844043        -1.909276
 H         1.871068         2.142956        -0.671093
 H         4.130474         1.967394        -0.468128
 H         4.285977        -0.783089        -1.901183
 H         5.284873        -0.388680        -0.567839
 H         3.578778        -1.987323         0.709119
 H         4.040684         0.233465         1.762979
