19
Iteration:   924charge 0 multiplicity 1
 C        -0.061442         0.078504        -0.136637
 C         1.472798         0.094434         0.062516
 C         2.148239         1.119663        -0.904227
 C         3.591940         0.941999        -0.446920
 C         4.246706        -0.383917        -1.017192
 C         3.508406        -1.103079         0.172565
 O         2.091122        -1.317685        -0.124579
 C         3.289212         0.258180         0.918690
 O         1.878792         0.336050         1.346456
 H        -0.593086        -0.729290         0.334567
 H        -0.447584         1.075152         0.207557
 H        -0.330419         0.024345        -1.153532
 H         2.045525         0.722353        -1.895183
 H         1.734924         2.211560        -0.910807
 H         4.266797         1.856930        -0.247219
 H         3.998919        -0.513330        -2.107108
 H         5.325579        -0.568005        -0.906858
 H         3.952432        -1.990770         0.668395
 H         3.899526         0.369345         1.768148
