19
Iteration:  1834charge 0 multiplicity 1
 C        -0.091374        -0.048921        -0.009620
 C         1.475264         0.063553         0.042382
 C         2.116561         1.097255        -0.884847
 C         3.652086         0.959805        -0.484452
 C         4.249149        -0.396110        -0.889874
 C         3.373123        -1.105310         0.223078
 O         2.046748        -1.242879        -0.350460
 C         3.311116         0.240843         1.022663
 O         1.992843         0.422630         1.248565
 H        -0.454054        -0.844672         0.571094
 H        -0.403264         0.873705         0.513715
 H        -0.428995        -0.149367        -1.077472
 H         2.057651         0.878585        -2.023083
 H         1.777925         2.136947        -0.769050
 H         4.417183         1.755805        -0.542318
 H         4.097113        -0.609245        -1.955547
 H         5.376731        -0.219303        -0.647518
 H         3.553805        -2.072520         0.651190
 H         4.062503         0.466307         1.760958
