19
Iteration:  1157
 C        -0.057355         0.099910        -0.089049
 C         1.459600         0.057932        -0.018266
 C         2.199935         1.165752        -0.873705
 C         3.587495         0.961253        -0.400526
 C         4.191338        -0.340876        -0.966814
 C         3.416263        -1.087182         0.114193
 O         2.055257        -1.320855        -0.176144
 C         3.365073         0.228455         1.008993
 O         1.944590         0.273383         1.274308
 H        -0.398817        -0.553348         0.742356
 H        -0.471907         1.030240         0.064202
 H        -0.558731        -0.282251        -0.979713
 H         2.245869         0.820011        -1.975388
 H         1.769328         2.181775        -0.835775
 H         4.234352         1.793533        -0.218425
 H         3.963548        -0.504418        -2.034324
 H         5.297899        -0.274904        -0.906713
 H         3.770322        -2.157190         0.421692
 H         3.924943         0.503038         1.941988
