19
Iteration:  3801charge 0 multiplicity 1
 C        -0.027831        -0.048451        -0.167196
 C         1.462914        -0.004332         0.032643
 C         2.142738         1.108565        -0.837765
 C         3.647539         1.019513        -0.418483
 C         4.184399        -0.368379        -0.948791
 C         3.388949        -1.140028         0.113384
 O         2.014669        -1.237041        -0.262602
 C         3.306489         0.179965         0.951487
 O         2.026033         0.460137         1.416321
 H        -0.417282        -0.966961         0.243402
 H        -0.612000         0.729561         0.380346
 H        -0.370715        -0.045098        -1.249677
 H         2.034481         1.029498        -1.929883
 H         2.001129         2.236829        -0.729540
 H         4.137468         1.989171        -0.321135
 H         3.969534        -0.514992        -1.961925
 H         5.261969        -0.452320        -0.908963
 H         3.739925        -2.006721         0.681059
 H         4.064816         0.295006         1.724766
