19
Iteration:  1582
 C        -0.010834        -0.088127        -0.081526
 C         1.445776         0.103695        -0.069456
 C         2.162144         1.204188        -0.830978
 C         3.651925         0.983029        -0.391857
 C         4.192864        -0.446079        -1.018257
 C         3.366177        -1.155844         0.202249
 O         2.043336        -1.175153        -0.213365
 C         3.382364         0.142713         1.007220
 O         1.952681         0.418071         1.297151
 H        -0.425717        -0.725088         0.780545
 H        -0.543106         0.877466        -0.223256
 H        -0.340447        -0.576202        -0.984358
 H         1.949587         1.102810        -1.979683
 H         1.888554         2.288331        -0.472189
 H         4.231666         1.896850        -0.411013
 H         3.870160        -0.643438        -2.078179
 H         5.310460        -0.416791        -1.007496
 H         3.660691        -2.151618         0.422224
 H         3.901296         0.366068         1.894295
