19
Iteration:   155
 C        -0.089980        -0.058923         0.178203
 C         1.442563         0.144043        -0.036456
 C         2.186192         1.141478        -1.080658
 C         3.631748         0.984545        -0.453953
 C         4.218761        -0.427672        -0.834336
 C         3.437904        -1.118043         0.236414
 O         2.101874        -1.206965        -0.388515
 C         3.334404         0.202940         1.001247
 O         1.912164         0.395745         1.250149
 H        -0.153527        -0.983126         0.811414
 H        -0.515231         0.741126         0.697151
 H        -0.671477        -0.208391        -0.756173
 H         2.021244         0.772412        -2.072107
 H         1.728369         2.134140        -1.093413
 H         4.174913         1.900555        -0.582336
 H         4.091767        -0.891001        -1.829747
 H         5.263937        -0.456905        -0.666624
 H         3.700066        -2.004284         0.683648
 H         3.920487         0.386171         1.974767
