19
Iteration:   243charge 0 multiplicity 1
 C        -0.128993        -0.161314        -0.162944
 C         1.441038         0.048448        -0.049713
 C         2.174474         1.130031        -0.777658
 C         3.638282         0.953278        -0.409595
 C         4.099702        -0.409515        -0.973379
 C         3.408069        -1.093739         0.206526
 O         2.095422        -1.231268        -0.236001
 C         3.387279         0.242035         1.003546
 O         2.050659         0.509297         1.295360
 H        -0.510043        -0.629308         0.727687
 H        -0.590228         0.889522        -0.105816
 H        -0.559608        -0.531781        -1.063372
 H         1.954334         1.195477        -1.836800
 H         1.874826         2.136026        -0.428806
 H         4.256136         1.839744        -0.746663
 H         3.666273        -0.700713        -1.959760
 H         5.156755        -0.622162        -0.983272
 H         3.782301        -1.969557         0.619945
 H         4.122837         0.263150         1.874417
