19
Iteration:  3410
 C        -0.137104         0.038952        -0.091581
 C         1.523569         0.011741        -0.038023
 C         2.235442         1.080001        -0.906468
 C         3.622032         0.995379        -0.330493
 C         4.203772        -0.297185        -0.985603
 C         3.399467        -1.128300         0.115427
 O         2.039099        -1.287195        -0.201137
 C         3.343928         0.196987         1.015635
 O         1.963608         0.399669         1.276548
 H        -0.683208        -0.763981         0.501762
 H        -0.296259         0.934657         0.451618
 H        -0.677887         0.013526        -1.026443
 H         2.290830         0.678986        -1.981527
 H         1.713050         2.071356        -0.583255
 H         4.235294         1.924109        -0.291248
 H         3.743964        -0.644956        -1.970751
 H         5.228117        -0.285454        -0.910565
 H         3.851669        -2.119344         0.424734
 H         3.983153         0.444981         1.918268
