19
Iteration:  1421
 C        -0.054026         0.021704         0.022916
 C         1.502251         0.062893        -0.009184
 C         2.160103         1.188470        -0.916107
 C         3.578714         0.978013        -0.294983
 C         4.218678        -0.365222        -0.948037
 C         3.418139        -1.110877         0.139895
 O         2.078384        -1.240419        -0.312435
 C         3.325511         0.109377         0.947827
 O         1.934108         0.376637         1.236466
 H        -0.306149        -0.706648         0.886181
 H        -0.510123         1.071345         0.248065
 H        -0.509581        -0.360385        -0.900878
 H         2.103180         0.886436        -2.012380
 H         1.920998         2.181424        -0.788924
 H         4.153440         1.882175        -0.344229
 H         3.951207        -0.592969        -1.982480
 H         5.341534        -0.560009        -0.748649
 H         3.784904        -2.063234         0.746158
 H         3.801325         0.296340         1.885155
