19
Iteration:  4924
 C        -0.039009         0.055651        -0.039292
 C         1.425490         0.141153         0.066633
 C         2.128991         1.043307        -0.885638
 C         3.599578         0.940796        -0.389500
 C         4.287486        -0.316132        -0.956560
 C         3.378677        -1.099411         0.065302
 O         2.049991        -1.279916        -0.344611
 C         3.334278         0.192685         1.013334
 O         1.958929         0.362912         1.327515
 H        -0.422270        -0.692271         0.592540
 H        -0.601892         0.851773         0.335993
 H        -0.305160        -0.089312        -1.141097
 H         2.085005         0.811596        -1.908373
 H         1.867378         2.083633        -0.633802
 H         4.180165         1.796699        -0.264913
 H         4.348891        -0.643988        -2.064256
 H         5.295422        -0.490127        -0.435018
 H         3.862391        -1.988397         0.450726
 H         3.881217         0.361578         1.932565
