19
Iteration:  1733charge 0 multiplicity 1
 C        -0.050492         0.021792        -0.185111
 C         1.478254         0.063680         0.040576
 C         2.115117         1.111323        -0.833384
 C         3.609445         0.964993        -0.439168
 C         4.219879        -0.327005        -1.002399
 C         3.376992        -1.142973         0.154351
 O         2.024210        -1.279509        -0.165257
 C         3.343265         0.249931         0.896614
 O         2.015016         0.355439         1.401639
 H        -0.677263        -0.525259         0.573492
 H        -0.482648         1.047911        -0.280842
 H        -0.148713        -0.318318        -1.211158
 H         1.990913         0.838764        -1.871823
 H         1.823086         2.159803        -0.675700
 H         4.336041         1.914634        -0.502204
 H         3.985314        -0.657404        -2.084488
 H         5.217052        -0.617154        -0.637931
 H         3.856055        -1.994623         0.728410
 H         4.084685         0.459327         1.696293
