19
Iteration:   455
 C        -0.079588         0.079130         0.050658
 C         1.520573         0.059527         0.018606
 C         2.208057         1.026646        -0.954744
 C         3.652517         1.028722        -0.428569
 C         4.194682        -0.219029        -0.872078
 C         3.386797        -1.188642         0.132774
 O         1.943279        -1.288614        -0.352084
 C         3.311492         0.252120         0.973389
 O         2.007133         0.299638         1.320452
 H        -0.447484        -0.589501         0.984132
 H        -0.576491         0.965459         0.140595
 H        -0.332372        -0.380322        -0.974723
 H         2.043299         0.719633        -2.010780
 H         1.825860         2.029774        -0.839110
 H         4.219221         1.943288        -0.523806
 H         4.352865        -0.344427        -1.947036
 H         5.289056        -0.198701        -0.461861
 H         3.745035        -2.276910         0.423536
 H         4.059044         0.316973         1.758912
