19
Iteration:  3452charge 0 multiplicity 1
 C        -0.122322        -0.035733         0.061629
 C         1.405626         0.047914        -0.013318
 C         2.114909         1.143601        -0.940813
 C         3.604893         0.909514        -0.419995
 C         4.328785        -0.384320        -0.817174
 C         3.396312        -1.191981         0.169974
 O         2.023710        -1.139374        -0.408779
 C         3.379216         0.193397         0.924296
 O         1.981900         0.427218         1.310155
 H        -0.251295        -1.045130         0.644481
 H        -0.423162         0.962473         0.394411
 H        -0.574981        -0.131298        -0.952084
 H         2.066518         0.839123        -2.022881
 H         1.719405         2.171971        -0.766855
 H         4.244098         1.836727        -0.473781
 H         4.534940        -0.611562        -1.912857
 H         5.246064        -0.160884        -0.172863
 H         3.634969        -2.163737         0.586143
 H         4.143308         0.336636         1.758527
