19
Iteration:   760
 C         0.012395        -0.041016        -0.105046
 C         1.461738         0.126997         0.021409
 C         2.105309         1.179830        -0.975911
 C         3.564452         0.958037        -0.418627
 C         4.206157        -0.436983        -0.914517
 C         3.424886        -1.094542         0.112464
 O         2.077606        -1.230937        -0.180929
 C         3.315535         0.165050         0.960251
 O         1.992199         0.396445         1.334242
 H        -0.529063        -0.840257         0.591874
 H        -0.387057         0.938144         0.215059
 H        -0.296859        -0.173413        -1.144546
 H         1.895530         1.150365        -2.092893
 H         1.484635         2.044475        -0.578250
 H         4.355131         1.806724        -0.301989
 H         4.052439        -0.760061        -1.930743
 H         5.287052        -0.528929        -0.679269
 H         3.724887        -2.051877         0.521761
 H         3.936128         0.305936         1.873166
