19
Iteration:  1168
 C        -0.044873        -0.000006        -0.112082
 C         1.472851         0.044500        -0.046467
 C         2.159495         1.169423        -0.855404
 C         3.670605         1.045665        -0.330943
 C         4.141554        -0.394544        -1.020612
 C         3.387292        -1.140284         0.111585
 O         2.000770        -1.302818        -0.228270
 C         3.358298         0.290002         1.050375
 O         1.995378         0.328562         1.308527
 H        -0.505548        -0.571497         0.738868
 H        -0.292684         0.988319        -0.079459
 H        -0.274031        -0.428532        -1.096952
 H         1.945608         1.023916        -1.995773
 H         1.831291         2.183803        -0.579732
 H         4.349225         1.897571        -0.477128
 H         3.900430        -0.684319        -2.064725
 H         5.237766        -0.527749        -0.783884
 H         3.894449        -2.091970         0.589139
 H         3.953086         0.444700         1.996094
