19
Iteration:  1760charge 0 multiplicity 1
 C        -0.070122         0.061439        -0.062992
 C         1.498130        -0.001380        -0.061549
 C         2.149684         1.063983        -0.862951
 C         3.592481         0.933313        -0.401447
 C         4.207729        -0.289700        -1.014030
 C         3.456350        -1.165466         0.195756
 O         2.043450        -1.247896        -0.216616
 C         3.319691         0.234756         1.005974
 O         1.962433         0.394484         1.302489
 H        -0.521238        -0.242647         0.867944
 H        -0.359708         1.092716        -0.239840
 H        -0.444131        -0.495699        -0.939572
 H         2.035791         0.894880        -1.997300
 H         1.907517         2.116638        -0.637170
 H         4.174536         1.754972        -0.572520
 H         3.870243        -0.564804        -1.979369
 H         5.300997        -0.387736        -0.870617
 H         3.827517        -2.091770         0.622320
 H         3.989624         0.358318         1.875898
