19
Iteration:  2071
 C        -0.097697        -0.013233         0.096712
 C         1.458997         0.096895        -0.032310
 C         2.139327         1.045034        -1.008751
 C         3.634560         0.936004        -0.409034
 C         4.339682        -0.351474        -0.871496
 C         3.397104        -1.122087         0.102273
 O         2.024586        -1.135202        -0.337712
 C         3.314137         0.134920         1.022817
 O         1.959274         0.394674         1.306688
 H        -0.491334        -0.927307         0.450571
 H        -0.496165         0.817613         0.681080
 H        -0.683268        -0.098536        -0.847661
 H         2.006286         0.751605        -2.038085
 H         1.890169         2.155208        -1.030644
 H         4.087632         1.955554        -0.405784
 H         4.404779        -0.637409        -1.966279
 H         5.339078        -0.293579        -0.403339
 H         3.679291        -2.107333         0.523055
 H         4.010962         0.348512         1.813544
