19
Iteration:  3001charge 0 multiplicity 1
 C        -0.047292        -0.048529        -0.100245
 C         1.406180         0.148657         0.076026
 C         2.143873         1.153923        -0.805729
 C         3.602418         0.920001        -0.370567
 C         4.311888        -0.444975        -0.915069
 C         3.388692        -1.124988         0.147215
 O         2.021420        -1.169374        -0.390546
 C         3.340806         0.192989         0.948255
 O         1.994057         0.393076         1.334215
 H        -0.311022        -1.009706         0.475118
 H        -0.696740         0.733140         0.154946
 H        -0.120990        -0.186960        -1.191162
 H         1.885439         0.901128        -1.848792
 H         1.653438         2.262268        -0.678822
 H         4.028043         1.895552        -0.440275
 H         3.992273        -0.697720        -1.972258
 H         5.435070        -0.517034        -0.641954
 H         3.638796        -1.998445         0.666468
 H         4.212467         0.303628         1.705460
