19
Iteration:   596charge 0 multiplicity 1
 C        -0.121935        -0.040716         0.019213
 C         1.416027         0.072033         0.008324
 C         2.172391         1.161728        -0.912355
 C         3.604172         0.969654        -0.420638
 C         4.295651        -0.421269        -0.909168
 C         3.380153        -1.113433         0.123496
 O         2.072423        -1.188411        -0.332678
 C         3.354682         0.205612         0.991259
 O         1.969891         0.412160         1.298176
 H        -0.450586        -0.623363         1.041288
 H        -0.599233         0.891980         0.123544
 H        -0.458256        -0.554535        -0.973633
 H         1.997830         0.732740        -1.957799
 H         1.622670         2.105157        -0.829503
 H         4.321313         1.836972        -0.484112
 H         4.391540        -0.815388        -1.907162
 H         5.288455        -0.486777        -0.396466
 H         3.746828        -2.171954         0.299513
 H         3.971515         0.334963         1.916932
