19
Iteration:  2042charge 0 multiplicity 1
 C        -0.017389        -0.085876        -0.029722
 C         1.482263         0.096102        -0.037724
 C         2.194116         1.119859        -0.883396
 C         3.706146         0.937173        -0.362439
 C         4.204232        -0.369411        -0.976626
 C         3.349706        -1.097083         0.163264
 O         1.987933        -1.249541        -0.287737
 C         3.345471         0.219000         0.986046
 O         1.949329         0.452318         1.285720
 H        -0.292003        -1.144441         0.398024
 H        -0.622147         0.558051         0.578085
 H        -0.602412        -0.080137        -0.946685
 H         2.077414         0.985924        -1.960368
 H         1.893944         2.085484        -0.644751
 H         4.197586         1.964981        -0.517774
 H         3.940646        -0.543453        -1.959979
 H         5.287343        -0.442701        -0.745735
 H         3.579298        -1.942845         0.783261
 H         4.092801         0.306794         1.818194
