19
Iteration:  1971charge 0 multiplicity 1
 C        -0.094890        -0.009803        -0.010609
 C         1.383401         0.107088        -0.058116
 C         2.148675         1.041318        -0.940802
 C         3.615981         0.976069        -0.371557
 C         4.269929        -0.342812        -0.955414
 C         3.396150        -1.147139         0.093365
 O         2.027061        -1.245959        -0.243158
 C         3.379124         0.230943         1.005081
 O         1.982334         0.363988         1.333517
 H        -0.419682        -0.390922         0.923154
 H        -0.583230         1.043156        -0.021106
 H        -0.644630        -0.462940        -0.874923
 H         2.349447         0.755268        -1.989226
 H         1.845354         2.167612        -0.883167
 H         4.290891         1.873052        -0.279761
 H         4.329222        -0.389773        -2.131270
 H         5.235811        -0.349147        -0.453059
 H         3.980264        -2.102220         0.354924
 H         4.004155         0.521020         1.851688
