19
Iteration:  1766charge 0 multiplicity 1
 C        -0.074354         0.046313        -0.043507
 C         1.456557         0.029422        -0.085362
 C         2.179153         1.064375        -0.875462
 C         3.591259         0.914872        -0.377672
 C         4.206969        -0.311208        -0.957923
 C         3.407968        -1.141470         0.187912
 O         2.060657        -1.255154        -0.250303
 C         3.340361         0.219803         0.953473
 O         1.985416         0.408201         1.310926
 H        -0.478882        -0.359816         0.906946
 H        -0.283160         1.150256        -0.164672
 H        -0.553025        -0.620697        -0.779316
 H         2.133674         0.890689        -1.961465
 H         1.649386         2.029046        -0.668760
 H         4.270617         1.910519        -0.368496
 H         3.903328        -0.541192        -2.044871
 H         5.327151        -0.469078        -0.971251
 H         3.884637        -2.024415         0.672487
 H         3.837958         0.543834         1.877842
