19
Iteration:  1004
 C        -0.044529         0.008035        -0.008714
 C         1.483310         0.013117        -0.032151
 C         2.180224         1.079785        -0.904080
 C         3.599064         1.012487        -0.351192
 C         4.271241        -0.353575        -0.888367
 C         3.392425        -1.107748         0.151159
 O         2.004052        -1.254122        -0.355960
 C         3.328635         0.238796         0.950907
 O         1.960231         0.396760         1.305079
 H        -0.349937        -0.435967         0.948717
 H        -0.524183         1.012824         0.034938
 H        -0.652550        -0.487704        -0.815563
 H         2.216588         0.789911        -1.984930
 H         1.713865         2.127087        -0.885110
 H         4.228170         1.830374        -0.308627
 H         4.059310        -0.828351        -1.874296
 H         5.311429        -0.491884        -0.628716
 H         3.685303        -2.169707         0.564646
 H         4.081094         0.508086         1.833803
