19
Iteration:  4875
 C        -0.031954        -0.037309        -0.080966
 C         1.486611         0.082400         0.016741
 C         2.199083         1.169944        -0.790369
 C         3.685719         0.988060        -0.393712
 C         4.202670        -0.393319        -1.004412
 C         3.421560        -1.137967         0.104406
 O         2.062468        -1.224764        -0.280881
 C         3.323614         0.196454         1.026087
 O         1.847458         0.389641         1.301416
 H        -0.410886        -0.781317         0.705063
 H        -0.740109         0.840526         0.160180
 H        -0.284099        -0.293791        -1.089889
 H         2.058181         0.885872        -1.892621
 H         1.831630         2.179228        -0.533489
 H         4.471910         1.807491        -0.560233
 H         3.759802        -0.516069        -1.958830
 H         5.274320        -0.483749        -1.048444
 H         3.797863        -2.101969         0.509661
 H         3.956576         0.235159         1.933981
