19
Iteration:  2574
 C        -0.041789         0.009661        -0.156258
 C         1.473884         0.043786         0.043246
 C         2.155855         1.020259        -0.866108
 C         3.592536         1.004710        -0.427339
 C         4.160477        -0.344118        -0.969793
 C         3.372605        -1.106825         0.111550
 O         2.008612        -1.244264        -0.215987
 C         3.430773         0.210460         1.054314
 O         2.004221         0.384318         1.350149
 H        -0.525456        -0.554233         0.675227
 H        -0.466544         1.114692        -0.178565
 H        -0.063674        -0.370241        -1.218724
 H         1.970607         0.820687        -1.971442
 H         1.635604         2.005298        -0.793556
 H         4.077869         2.080458        -0.437899
 H         3.906551        -0.575449        -1.976435
 H         5.286212        -0.339017        -0.873257
 H         3.745049        -2.037685         0.479852
 H         4.219032         0.382276         1.767081
