19
Iteration:   832charge 0 multiplicity 1
 C         0.031696        -0.018675         0.082620
 C         1.435645         0.112614        -0.061646
 C         2.182157         1.085768        -0.952729
 C         3.554329         0.916701        -0.358326
 C         4.239838        -0.402857        -0.822765
 C         3.345332        -1.167654         0.139885
 O         2.066573        -1.215753        -0.392396
 C         3.299527         0.254103         0.946897
 O         1.967835         0.452442         1.266520
 H        -0.022971        -0.736070         0.900835
 H        -0.574887         0.928218         0.204625
 H        -0.285050        -0.685406        -0.804979
 H         1.849296         1.019293        -2.038593
 H         1.951277         2.075987        -0.652277
 H         3.975356         1.957155        -0.346659
 H         4.218135        -0.600598        -1.902716
 H         5.302690        -0.595119        -0.450394
 H         3.668958        -2.085851         0.683674
 H         4.025081         0.405621         1.810033
