19
Iteration:   403charge 0 multiplicity 1
 C        -0.042047         0.003039         0.005602
 C         1.472928         0.067360        -0.026269
 C         2.182960         1.185559        -0.840818
 C         3.604153         0.998366        -0.367938
 C         4.211239        -0.332014        -0.941983
 C         3.396420        -1.079547         0.166989
 O         2.011948        -1.319042        -0.344609
 C         3.300890         0.186226         0.967050
 O         1.995164         0.353610         1.246214
 H        -0.282863        -0.604931         0.950130
 H        -0.540710         0.896812         0.144615
 H        -0.376201        -0.589053        -0.872253
 H         2.178923         1.066028        -1.909596
 H         1.919798         2.216053        -0.590459
 H         4.110563         1.870844        -0.592349
 H         4.044968        -0.836375        -1.906492
 H         5.270065        -0.475018        -0.711413
 H         3.785228        -2.011624         0.720669
 H         3.978388         0.391835         1.869150
