19
Iteration:  3574
 C        -0.028982        -0.034668         0.096607
 C         1.450068         0.097534        -0.062832
 C         2.153970         1.093544        -0.949802
 C         3.574857         0.899622        -0.349191
 C         4.272829        -0.400247        -0.913758
 C         3.434487        -1.111859         0.161395
 O         2.094158        -1.190204        -0.367376
 C         3.288167         0.248979         0.980494
 O         1.933030         0.424942         1.241016
 H        -0.229972        -0.902461         0.756979
 H        -0.401781         0.907544         0.539238
 H        -0.650457        -0.282879        -0.847115
 H         2.236107         0.962469        -2.046762
 H         1.910297         2.090338        -0.507897
 H         4.166940         1.778526        -0.226443
 H         3.950105        -0.776337        -1.974548
 H         5.366875        -0.465180        -0.663992
 H         3.438869        -2.126486         0.595093
 H         3.757831         0.374881         1.918014
