19
Iteration:  3901charge 0 multiplicity 1
 C        -0.050127         0.050671        -0.018405
 C         1.480227         0.035541        -0.004989
 C         2.179991         1.055319        -0.821394
 C         3.628122         0.986264        -0.413250
 C         4.247095        -0.322283        -0.993497
 C         3.410394        -1.091356         0.115080
 O         2.008287        -1.259236        -0.288518
 C         3.298253         0.217466         1.047989
 O         1.990842         0.332045         1.280499
 H        -0.578090        -0.547073         0.691702
 H        -0.577820         1.001346        -0.162757
 H        -0.543972        -0.365292        -0.911792
 H         2.014190         0.945974        -1.902322
 H         1.745908         2.125794        -0.574377
 H         4.114486         1.911004        -0.483938
 H         4.049863        -0.507274        -2.029536
 H         5.275611        -0.467326        -0.715727
 H         3.942008        -2.002742         0.437532
 H         3.969371         0.383380         1.927559
