19
Iteration:   925
 C        -0.057569         0.064748        -0.130228
 C         1.476177         0.100776         0.067876
 C         2.148737         1.119119        -0.898663
 C         3.592804         0.949099        -0.459551
 C         4.251377        -0.388919        -1.010343
 C         3.502348        -1.103661         0.176884
 O         2.083970        -1.312296        -0.130611
 C         3.285405         0.245756         0.924439
 O         1.879348         0.339189         1.341155
 H        -0.565304        -0.710503         0.314954
 H        -0.465040         1.105298         0.177635
 H        -0.344323         0.033677        -1.156268
 H         2.045531         0.742287        -1.870382
 H         1.712179         2.223786        -0.932754
 H         4.242690         1.834246        -0.267207
 H         4.025662        -0.504798        -2.113856
 H         5.312399        -0.554126        -0.903119
 H         4.019178        -1.995443         0.659443
 H         3.933611         0.373287         1.771770
