19
Iteration:  2192
 C        -0.077277         0.016458         0.058314
 C         1.410188         0.073722         0.023257
 C         2.193907         1.165541        -0.875999
 C         3.613069         0.971864        -0.460017
 C         4.250426        -0.395816        -0.865882
 C         3.459994        -1.103789         0.122095
 O         2.083896        -1.244298        -0.360378
 C         3.292730         0.215150         0.974245
 O         1.940900         0.327460         1.256192
 H        -0.598177        -0.590944         0.807023
 H        -0.427812         0.995658         0.265417
 H        -0.442799        -0.271255        -0.891894
 H         1.985912         0.835977        -1.914878
 H         1.785778         2.212453        -0.815206
 H         4.286790         1.873941        -0.439177
 H         4.155939        -0.665351        -1.917644
 H         5.351059        -0.550900        -0.638426
 H         3.643335        -2.009268         0.633506
 H         3.870873         0.346016         1.945789
