19
Iteration:   970
 C        -0.096209        -0.135610         0.092193
 C         1.403242         0.137514        -0.038343
 C         2.213280         1.163440        -0.915608
 C         3.686485         0.967213        -0.418161
 C         4.325705        -0.411006        -0.873348
 C         3.390142        -1.101330         0.141697
 O         2.017890        -1.232166        -0.375141
 C         3.307030         0.157977         0.971640
 O         1.923488         0.489680         1.271428
 H        -0.181730        -0.762805         0.897888
 H        -0.698170         0.834322         0.217519
 H        -0.406887        -0.696262        -0.792546
 H         2.149837         0.879875        -1.934143
 H         1.862642         2.271595        -0.789044
 H         4.267458         1.871855        -0.444926
 H         4.205933        -0.928596        -1.866668
 H         5.358976        -0.474302        -0.584982
 H         3.454411        -2.108928         0.632288
 H         3.890152         0.487361         1.881602
