19
Iteration:   521charge 0 multiplicity 1
 C         0.030955        -0.038839        -0.092155
 C         1.450798         0.045697         0.020873
 C         2.135979         1.089599        -0.850375
 C         3.635204         1.004554        -0.419004
 C         4.205736        -0.363647        -0.970092
 C         3.363900        -1.046063         0.141854
 O         1.952907        -1.197017        -0.241820
 C         3.367433         0.199792         0.926611
 O         2.015120         0.376879         1.337618
 H        -0.363474        -1.061849         0.346706
 H        -0.469019         0.613684         0.487509
 H        -0.104908         0.012247        -1.212476
 H         1.944647         0.828643        -1.906714
 H         1.636992         2.044346        -0.733739
 H         4.240584         1.879163        -0.527262
 H         4.170245        -0.715910        -2.003754
 H         5.272032        -0.524767        -0.625168
 H         3.628964        -1.989615         0.783588
 H         3.996259         0.175524         1.852675
