19
Iteration:  1856
 C        -0.020874         0.020345        -0.097505
 C         1.448604         0.072510        -0.041858
 C         2.119774         1.082935        -0.918632
 C         3.632651         0.983308        -0.376283
 C         4.204492        -0.445617        -1.008530
 C         3.505262        -1.071349         0.143721
 O         2.050638        -1.290997        -0.141039
 C         3.278692         0.241804         0.966440
 O         1.931193         0.366725         1.328198
 H        -0.447665        -0.777298         0.430772
 H        -0.231994         0.923065         0.498108
 H        -0.311640         0.152229        -1.168499
 H         2.351341         1.092936        -2.046525
 H         1.618397         2.038088        -0.740081
 H         4.086707         1.992636        -0.419506
 H         3.764830        -0.465303        -1.979671
 H         5.352158        -0.508592        -0.891142
 H         3.860931        -1.945635         0.623795
 H         3.945213         0.497570         1.780650
