19
Iteration:  4155
 C        -0.088491        -0.015755         0.058469
 C         1.447421         0.129400         0.003563
 C         2.198773         1.078441        -0.919286
 C         3.619982         0.971582        -0.357565
 C         4.265803        -0.307520        -0.888566
 C         3.402678        -1.138964         0.055790
 O         2.015515        -1.231902        -0.307280
 C         3.368407         0.166805         0.957961
 O         1.916050         0.388223         1.265969
 H        -0.208705        -0.851418         0.728863
 H        -0.558591         0.842210         0.486498
 H        -0.464648        -0.185588        -0.953825
 H         2.266800         0.789287        -2.012281
 H         1.917365         2.169002        -0.959259
 H         4.253986         1.747595        -0.016324
 H         4.172559        -0.498028        -2.009869
 H         5.299885        -0.490734        -0.803487
 H         3.728183        -2.136662         0.444190
 H         3.831518         0.334098         1.914220
