19
Iteration:  4297
 C        -0.080122        -0.069529        -0.027924
 C         1.364721         0.087305         0.041125
 C         2.134099         1.153691        -0.912500
 C         3.665694         0.947287        -0.424736
 C         4.249897        -0.422098        -0.833611
 C         3.436927        -1.100476         0.110317
 O         2.037082        -1.122067        -0.372620
 C         3.306405         0.179655         0.952647
 O         2.014612         0.368119         1.364610
 H        -0.426299        -0.714862         0.766170
 H        -0.489752         0.944647         0.094624
 H        -0.429891        -0.466959        -1.019456
 H         2.005645         0.902056        -1.970939
 H         1.714664         2.135514        -0.841245
 H         4.139527         1.902688        -0.297138
 H         4.268540        -0.812113        -1.984097
 H         5.385922        -0.562589        -0.634637
 H         3.741851        -2.066587         0.538450
 H         4.053261         0.322436         1.698561
