19
Iteration:  3705
 C        -0.124776        -0.152035         0.025307
 C         1.504095         0.143981         0.044191
 C         2.202953         1.126145        -0.919399
 C         3.641412         0.988482        -0.343538
 C         4.348462        -0.398528        -0.933893
 C         3.370012        -1.174056         0.130483
 O         1.953652        -1.162745        -0.353448
 C         3.311740         0.248549         0.955165
 O         1.976665         0.411919         1.316398
 H        -0.357578        -0.767445         0.905145
 H        -0.714237         0.857360        -0.004440
 H        -0.269814        -0.570637        -1.059052
 H         2.013055         0.831878        -1.940016
 H         1.712100         2.013118        -0.966040
 H         4.185555         1.905111        -0.478143
 H         4.357550        -0.592298        -2.115235
 H         5.427379        -0.490602        -0.568891
 H         3.454391        -2.178520         0.608421
 H         3.981152         0.446816         1.797957
