19
Iteration:  3389
 C         0.005085         0.049872        -0.142721
 C         1.449589         0.066587        -0.000200
 C         2.075236         1.160628        -0.838035
 C         3.627853         0.962343        -0.404738
 C         4.172866        -0.405581        -0.974106
 C         3.453134        -1.101841         0.168131
 O         2.042596        -1.319675        -0.228171
 C         3.387704         0.228571         0.966416
 O         1.941854         0.380413         1.309402
 H        -0.500755        -0.800382         0.344721
 H        -0.465686         0.917571         0.175042
 H        -0.128719        -0.224193        -1.165857
 H         2.035168         1.112730        -1.994147
 H         1.739966         2.110677        -0.234925
 H         4.351355         1.784653        -0.352835
 H         3.837400        -0.479538        -2.040371
 H         5.220006        -0.409848        -0.907969
 H         3.792341        -2.013427         0.772262
 H         4.031463         0.326109         1.893695
