19
Iteration:  4520charge 0 multiplicity 1
 C        -0.030593        -0.027941         0.031317
 C         1.444283         0.079479        -0.063010
 C         2.179117         1.167598        -1.000634
 C         3.674612         0.947029        -0.369776
 C         4.262077        -0.316724        -0.922212
 C         3.424189        -1.178700         0.182558
 O         2.024913        -1.264907        -0.355073
 C         3.272330         0.181218         0.998178
 O         1.923495         0.421423         1.346515
 H        -0.052704        -0.822764         0.811832
 H        -0.455455         0.901672         0.404934
 H        -0.600811        -0.158635        -0.850744
 H         2.198201         0.886865        -2.001896
 H         1.767890         2.144010        -0.633606
 H         4.333883         1.849261        -0.421438
 H         3.862943        -0.469199        -2.033104
 H         5.327746        -0.316676        -0.733230
 H         3.633392        -2.192960         0.481559
 H         3.819564         0.276777         1.917324
