19
Iteration:   895
 C        -0.026407         0.032613        -0.093094
 C         1.534952        -0.039173        -0.056623
 C         2.151502         1.041676        -0.869845
 C         3.598109         1.019076        -0.440668
 C         4.137489        -0.324263        -0.902703
 C         3.482423        -1.095371         0.218526
 O         1.980463        -1.326627        -0.245265
 C         3.344766         0.257949         0.997481
 O         2.001722         0.463410         1.257256
 H        -0.587866        -0.700380         0.397497
 H        -0.286517         1.010752         0.512517
 H        -0.330852         0.036839        -1.178795
 H         2.095926         0.702314        -1.881761
 H         1.642775         2.007702        -0.674084
 H         4.141497         1.863451        -0.472492
 H         3.911817        -0.446164        -1.971114
 H         5.146977        -0.589539        -0.694636
 H         3.734674        -2.122165         0.627955
 H         3.867973         0.165600         1.990246
