19
Iteration:   904
 C        -0.075066         0.082547        -0.127337
 C         1.477462        -0.045708        -0.048922
 C         2.187822         0.974820        -0.902982
 C         3.607569         0.997867        -0.415558
 C         4.150000        -0.320510        -0.938855
 C         3.426175        -1.067587         0.200770
 O         2.030972        -1.319424        -0.196885
 C         3.369075         0.251957         1.080770
 O         1.999918         0.401600         1.269637
 H        -0.606441        -0.682007         0.312607
 H        -0.334045         1.125435         0.301426
 H        -0.440016         0.181666        -1.135499
 H         2.159557         0.975511        -1.943496
 H         1.611551         1.942723        -0.598183
 H         4.117313         1.926037        -0.595223
 H         3.768895        -0.616971        -1.960744
 H         5.218429        -0.373320        -1.004468
 H         3.986263        -1.985223         0.484580
 H         4.032664         0.529226         1.891689
