19
Iteration:  2772
 C        -0.035184        -0.096910         0.104875
 C         1.469716         0.125263        -0.042448
 C         2.259726         1.109074        -0.986907
 C         3.620046         0.970895        -0.310479
 C         4.298333        -0.370184        -0.885067
 C         3.312144        -1.146047         0.107966
 O         1.991661        -1.223207        -0.403046
 C         3.333333         0.194416         0.985815
 O         1.945033         0.479206         1.280033
 H        -0.175870        -0.752101         1.020232
 H        -0.605512         0.843144         0.179759
 H        -0.622148        -0.590395        -0.708117
 H         2.108538         0.711982        -1.962006
 H         1.759159         2.014646        -0.867369
 H         4.232039         1.887148        -0.374523
 H         4.141315        -0.522643        -1.926611
 H         5.328201        -0.517278        -0.562670
 H         3.586738        -2.033374         0.611127
 H         3.885642         0.258031         1.950424
