19
Iteration:  4055charge 0 multiplicity 1
 C        -0.046724        -0.112779        -0.104562
 C         1.469482         0.152308         0.038424
 C         2.193248         1.124731        -0.859644
 C         3.688581         1.033953        -0.378400
 C         4.246123        -0.324865        -0.975237
 C         3.352336        -1.101230         0.083160
 O         1.935165        -1.243525        -0.269660
 C         3.369547         0.149182         0.953881
 O         1.957583         0.393541         1.400136
 H        -0.433585        -0.874460         0.643198
 H        -0.696513         0.731596         0.122509
 H        -0.124187        -0.460519        -1.101819
 H         2.011002         0.860374        -1.951020
 H         1.987179         2.287510        -0.599754
 H         4.416125         1.791127        -0.502197
 H         3.930796        -0.528392        -2.046194
 H         5.311860        -0.560888        -0.895426
 H         3.771195        -2.116660         0.391831
 H         3.989282         0.245574         1.850865
