19
Iteration:  1819
 C        -0.077693        -0.081905         0.076665
 C         1.393231         0.112413        -0.025902
 C         2.119038         1.139924        -0.962499
 C         3.600691         0.930174        -0.388612
 C         4.358197        -0.444417        -0.820145
 C         3.393004        -1.133200         0.125065
 O         2.025848        -1.172269        -0.365260
 C         3.369679         0.228059         0.887954
 O         1.981086         0.467553         1.321286
 H        -0.355556        -1.007521         0.687508
 H        -0.675221         0.848020         0.278841
 H        -0.442795        -0.397619        -0.932213
 H         1.953128         0.829677        -1.916465
 H         1.739049         2.139714        -0.791985
 H         4.071214         1.999473        -0.447347
 H         4.420325        -0.912955        -1.836820
 H         5.324970        -0.637641        -0.478170
 H         3.759002        -2.050076         0.687789
 H         3.944073         0.287033         1.822448
