19
Iteration:  1910charge 0 multiplicity 1
 C        -0.087191        -0.089116         0.005799
 C         1.435207         0.175599         0.059643
 C         2.107769         1.143302        -0.938823
 C         3.669290         0.919261        -0.482958
 C         4.261712        -0.409213        -0.887048
 C         3.473339        -1.105572         0.188713
 O         2.029944        -1.200374        -0.307811
 C         3.333350         0.186458         0.935190
 O         1.939436         0.390151         1.307800
 H        -0.401833        -0.905096         0.632664
 H        -0.485337         0.915313         0.241884
 H        -0.274513        -0.454364        -1.047930
 H         2.071825         0.987474        -2.000915
 H         1.799730         2.144254        -0.781473
 H         4.028183         1.989885        -0.366781
 H         4.178298        -0.730650        -1.900471
 H         5.362827        -0.347115        -0.679333
 H         3.627909        -2.051203         0.647110
 H         3.982396         0.394140         1.774101
