19
Iteration:  1767
 C        -0.073432         0.041232        -0.037062
 C         1.442887         0.035472        -0.081354
 C         2.186138         1.067719        -0.878112
 C         3.596924         0.918930        -0.372199
 C         4.204405        -0.324113        -0.947434
 C         3.401214        -1.131160         0.183052
 O         2.063702        -1.260253        -0.257781
 C         3.344106         0.217239         0.946222
 O         1.988661         0.410342         1.309984
 H        -0.440129        -0.364032         0.883854
 H        -0.288628         1.153709        -0.149495
 H        -0.571875        -0.636613        -0.757580
 H         2.147822         0.879135        -2.020132
 H         1.591679         2.019917        -0.667771
 H         4.250021         1.910111        -0.319674
 H         3.913545        -0.536895        -2.034218
 H         5.356827        -0.475109        -0.977760
 H         3.866832        -2.003066         0.664211
 H         3.833335         0.570660         1.871773
