19
Iteration:  4751
 C        -0.113266        -0.058281        -0.114646
 C         1.444291         0.023159         0.050529
 C         2.111261         1.173306        -0.858030
 C         3.665378         0.957182        -0.380595
 C         4.165505        -0.364457        -0.921502
 C         3.396894        -1.102526         0.114078
 O         1.992516        -1.204306        -0.269544
 C         3.404574         0.187505         1.001230
 O         2.078238         0.393905         1.320105
 H        -0.416215        -1.024095         0.245778
 H        -0.762533         0.824645         0.012866
 H        -0.190055        -0.127158        -1.269167
 H         2.195875         1.191877        -1.977540
 H         1.677804         2.167976        -0.605604
 H         4.241582         1.907946        -0.494076
 H         4.071434        -0.649304        -2.003774
 H         5.126477        -0.460874        -0.667864
 H         3.722722        -2.119977         0.432753
 H         4.029356         0.292010         1.917037
