19
Iteration:  2167charge 0 multiplicity 1
 C        -0.040317        -0.085348        -0.137992
 C         1.434752         0.092932        -0.069839
 C         2.182780         1.163849        -0.778738
 C         3.591465         0.934146        -0.452217
 C         4.244997        -0.392431        -0.936035
 C         3.434768        -1.125190         0.142393
 O         1.972441        -1.187713        -0.269689
 C         3.349171         0.182338         0.990647
 O         2.027028         0.458075         1.355252
 H        -0.270508        -0.733183         0.689908
 H        -0.741041         0.773020        -0.015307
 H        -0.361938        -0.798795        -0.945953
 H         1.930659         1.215375        -1.854314
 H         1.691213         2.155443        -0.389682
 H         4.172202         1.772587        -0.364251
 H         4.050512        -0.654367        -2.054036
 H         5.313368        -0.524303        -0.747155
 H         3.519641        -2.189596         0.521760
 H         4.058442         0.248144         1.776821
