19
Iteration:  4537
 C        -0.066910        -0.025148         0.103045
 C         1.444405         0.010966        -0.117299
 C         2.193008         1.084763        -0.860116
 C         3.615494         0.976365        -0.366432
 C         4.306880        -0.412148        -0.854595
 C         3.336456        -1.075568         0.067600
 O         2.016794        -1.219647        -0.396868
 C         3.338752         0.274152         0.995068
 O         1.956122         0.388458         1.274553
 H        -0.410593        -0.883830         0.692535
 H        -0.429046         0.947762         0.534641
 H        -0.611841        -0.157315        -0.895345
 H         2.076856         0.921587        -1.994925
 H         1.871045         2.113958        -0.694478
 H         4.140121         1.913075        -0.322206
 H         4.302817        -0.704574        -1.838643
 H         5.357588        -0.547863        -0.509154
 H         3.734885        -1.934271         0.648071
 H         4.104092         0.456037         1.805949
