19
Iteration:   534
 C        -0.121043         0.027804        -0.064685
 C         1.444142         0.094032         0.060958
 C         2.155612         1.065775        -0.917554
 C         3.590957         0.953494        -0.435287
 C         4.307647        -0.303008        -0.935549
 C         3.406959        -1.169653         0.080078
 O         2.035223        -1.270929        -0.206914
 C         3.336480         0.174531         0.982619
 O         1.993199         0.420401         1.317924
 H        -0.438634        -0.970871         0.289744
 H        -0.579870         0.904172         0.397847
 H        -0.500784         0.088221        -1.069948
 H         2.052307         0.836804        -1.959060
 H         1.794310         2.074548        -0.653630
 H         4.083406         1.880475        -0.333079
 H         4.055244        -0.452375        -2.015854
 H         5.406280        -0.276668        -0.769220
 H         3.829589        -2.230564         0.402143
 H         4.117038         0.463497         1.777636
