19
Iteration:  1076
 C        -0.058096        -0.091323        -0.012591
 C         1.433643         0.089663        -0.045250
 C         2.230358         1.105423        -0.846128
 C         3.658073         0.918354        -0.359149
 C         4.162527        -0.452426        -0.914027
 C         3.434675        -1.130224         0.136482
 O         2.058181        -1.213149        -0.347764
 C         3.340688         0.266873         0.985061
 O         1.933049         0.478544         1.264935
 H        -0.256507        -1.061882         0.527716
 H        -0.561110         0.754442         0.640744
 H        -0.497072        -0.111554        -1.014368
 H         2.092562         1.028587        -1.894116
 H         1.874570         2.132047        -0.558461
 H         4.232460         1.962373        -0.298807
 H         3.903574        -0.563616        -1.984450
 H         5.239294        -0.356663        -0.761030
 H         3.540564        -2.088633         0.511405
 H         3.874343         0.410192         1.903600
