19
Iteration:  4448
 C        -0.091562         0.006486        -0.077403
 C         1.455511         0.083632        -0.040554
 C         2.206030         1.130313        -0.855992
 C         3.609346         0.960513        -0.339489
 C         4.199535        -0.387297        -0.959008
 C         3.446342        -1.158405         0.135647
 O         2.034300        -1.205642        -0.284995
 C         3.407799         0.259979         1.015527
 O         1.938886         0.336408         1.293104
 H        -0.335108        -0.589450         0.813940
 H        -0.447277         1.085084        -0.013872
 H        -0.507410        -0.445370        -1.108254
 H         1.939292         0.872152        -1.977878
 H         1.588336         1.973344        -0.504109
 H         4.169617         1.928027        -0.372051
 H         3.938137        -0.530449        -1.941228
 H         5.310167        -0.572790        -0.832775
 H         3.592459        -2.244284         0.539910
 H         4.109902         0.515353         1.807569
