19
Iteration:  4343charge 0 multiplicity 1
 C        -0.025072         0.005079        -0.138770
 C         1.420293        -0.045285        -0.075603
 C         2.236357         1.139193        -0.883341
 C         3.640784         1.030085        -0.363557
 C         4.135107        -0.307330        -0.958321
 C         3.392961        -1.103316         0.135683
 O         2.055406        -1.274756        -0.195039
 C         3.382041         0.193109         0.991412
 O         1.974745         0.391721         1.348877
 H        -0.618024        -0.695540         0.459361
 H        -0.449968         0.945719         0.296975
 H        -0.581663        -0.044133        -1.038133
 H         2.224674         1.087542        -1.967150
 H         1.646039         2.123358        -0.662605
 H         4.323676         1.833128        -0.353644
 H         3.687271        -0.751869        -2.082949
 H         5.204768        -0.604094        -1.057356
 H         3.598590        -2.030964         0.612277
 H         4.020625         0.153120         1.931609
