19
Iteration:  4634
 C         0.007444        -0.043624        -0.104328
 C         1.416960         0.078947         0.052279
 C         2.135862         1.143828        -0.816870
 C         3.599947         0.972902        -0.412482
 C         4.248555        -0.350479        -0.968936
 C         3.371147        -1.124913         0.179564
 O         2.028518        -1.214838        -0.324257
 C         3.371121         0.183005         1.017293
 O         1.976501         0.371524         1.289683
 H        -0.327301        -0.644003         0.675919
 H        -0.469460         0.901549        -0.021536
 H        -0.369255        -0.425951        -1.026483
 H         1.960854         1.097657        -1.920827
 H         1.867646         2.126747        -0.525041
 H         4.152206         1.892344        -0.553608
 H         3.944449        -0.574230        -1.977009
 H         5.382495        -0.577063        -0.775412
 H         3.715560        -2.129627         0.458356
 H         3.972306         0.336409         1.946620
