19
Iteration:  1688
 C        -0.045723        -0.070917         0.074494
 C         1.443707         0.123766        -0.025658
 C         2.262070         1.148094        -0.942579
 C         3.618695         0.916277        -0.408067
 C         4.297669        -0.435590        -0.907798
 C         3.337621        -1.114112         0.158307
 O         2.017796        -1.229034        -0.303832
 C         3.342236         0.255974         0.910496
 O         1.879901         0.407778         1.272638
 H        -0.079823        -1.032733         0.713557
 H        -0.398061         0.700259         0.721638
 H        -0.570650        -0.163233        -0.867027
 H         2.171634         0.950654        -1.943061
 H         1.907151         2.155770        -0.766316
 H         4.403495         1.763685        -0.253623
 H         3.961921        -0.472659        -1.997950
 H         5.340905        -0.264564        -0.847456
 H         3.756219        -2.004139         0.656523
 H         3.786245         0.451680         1.851602
