19
Iteration:    40
 C        -0.147818        -0.153939         0.176363
 C         1.417994         0.078508        -0.061083
 C         2.107944         1.070090        -0.935257
 C         3.609519         0.878794        -0.425876
 C         4.348180        -0.430734        -0.825869
 C         3.383609        -1.097417         0.133909
 O         2.049546        -1.074940        -0.318594
 C         3.376457         0.187906         0.973216
 O         1.973628         0.528377         1.178489
 H        -0.301021        -0.655277         1.106541
 H        -0.697674         0.918698         0.114295
 H        -0.557988        -0.735707        -0.631793
 H         2.038097         0.836097        -2.048639
 H         1.838099         2.151870        -0.872046
 H         4.204274         1.853589        -0.548646
 H         4.370242        -0.875704        -1.843788
 H         5.489246        -0.538620        -0.733251
 H         3.790062        -2.153613         0.532839
 H         4.025179         0.382157         1.821466
