19
Iteration:  1315
 C        -0.120061        -0.106600        -0.104223
 C         1.506563         0.125543        -0.068367
 C         2.188709         1.241793        -0.826655
 C         3.633688         0.906795        -0.355449
 C         4.182214        -0.374894        -1.007219
 C         3.427581        -1.113972         0.155323
 O         2.008662        -1.219056        -0.223009
 C         3.376946         0.178569         0.969517
 O         1.991612         0.392600         1.318656
 H        -0.387805        -0.985892         0.392825
 H        -0.760076         0.782557         0.323581
 H        -0.403192        -0.199812        -1.168456
 H         2.052237         1.221467        -1.978209
 H         1.821978         2.262880        -0.360008
 H         4.294092         1.818183        -0.372384
 H         3.857931        -0.864049        -1.958549
 H         5.288893        -0.331205        -0.833760
 H         3.626205        -2.225600         0.449399
 H         3.983054         0.286670         1.907187
