19
Iteration:  4571charge 0 multiplicity 1
 C        -0.073156         0.005107        -0.063466
 C         1.459289         0.070316        -0.023743
 C         2.157885         1.131057        -0.947852
 C         3.535882         0.921717        -0.383795
 C         4.299026        -0.378745        -0.939603
 C         3.430237        -1.083347         0.064435
 O         2.030852        -1.235923        -0.310405
 C         3.354540         0.200063         1.018299
 O         1.971838         0.379559         1.414936
 H        -0.309195        -0.917226         0.586897
 H        -0.497420         0.944705         0.459751
 H        -0.476049         0.022743        -1.120324
 H         2.117579         0.708902        -1.988179
 H         1.819745         2.161088        -0.686687
 H         3.930049         1.908720        -0.368935
 H         4.212028        -0.606165        -1.972963
 H         5.261867        -0.441115        -0.488637
 H         3.544636        -2.140168         0.479744
 H         4.112285         0.492014         1.820546
