19
Iteration:  1203charge 0 multiplicity 1
 C        -0.060168        -0.119141        -0.098845
 C         1.414586         0.199917         0.057761
 C         2.154395         1.227378        -0.868796
 C         3.640660         0.884509        -0.356353
 C         4.237470        -0.417062        -1.011186
 C         3.436810        -1.169995         0.120170
 O         2.023959        -1.154962        -0.296854
 C         3.345889         0.192893         1.016133
 O         1.993302         0.408540         1.345516
 H        -0.460951        -0.801089         0.705554
 H        -0.736053         0.750466        -0.182162
 H        -0.285440        -0.561164        -1.051336
 H         1.967659         0.941991        -2.021931
 H         1.656079         2.219035        -0.672217
 H         4.134873         1.804676        -0.478318
 H         4.195790        -0.721586        -2.062519
 H         5.364978        -0.569751        -0.729989
 H         3.645971        -2.246828         0.613763
 H         3.930563         0.378942         1.883163
