19
Iteration:  1025charge 0 multiplicity 1
 C        -0.077638         0.085260        -0.092065
 C         1.408741         0.075118         0.045804
 C         2.105490         1.010481        -0.883978
 C         3.638188         0.945964        -0.394200
 C         4.262756        -0.286610        -0.936669
 C         3.409103        -1.082030         0.091824
 O         2.063521        -1.320612        -0.229012
 C         3.347883         0.167504         0.983760
 O         1.994509         0.378340         1.329424
 H        -0.704082        -0.497518         0.483159
 H        -0.413102         1.140084        -0.224286
 H        -0.162717        -0.220292        -1.151779
 H         1.918674         0.900872        -1.938591
 H         1.807551         2.095804        -0.641945
 H         4.064455         1.891581        -0.592836
 H         4.177971        -0.405480        -2.051653
 H         5.296262        -0.412729        -0.628937
 H         3.690263        -2.064052         0.585384
 H         3.986175         0.478799         1.873208
