19
Iteration:  4090charge 0 multiplicity 1
 C        -0.071947        -0.020814        -0.101284
 C         1.461774         0.023589        -0.007264
 C         2.151879         1.207474        -0.853443
 C         3.643122         0.962190        -0.388389
 C         4.198486        -0.346452        -0.955891
 C         3.470450        -1.133692         0.184537
 O         2.026677        -1.205478        -0.278691
 C         3.340295         0.123806         0.988703
 O         1.973943         0.370980         1.318452
 H        -0.300079        -0.715081         0.743472
 H        -0.335453         1.071786         0.001154
 H        -0.654182        -0.397747        -1.004730
 H         2.004045         1.287891        -2.022722
 H         1.590863         2.233645        -0.415725
 H         4.235547         1.929129        -0.429832
 H         3.723273        -0.755213        -1.901299
 H         5.238689        -0.441267        -1.013677
 H         3.851723        -2.183944         0.294015
 H         4.032242         0.353809         1.798323
