19
Iteration:  1557
 C        -0.064184        -0.047010         0.005726
 C         1.365740         0.113452         0.018927
 C         2.173751         1.119534        -0.895533
 C         3.697737         0.939908        -0.410843
 C         4.319844        -0.374826        -0.883596
 C         3.298403        -1.101503         0.160174
 O         1.989859        -1.217229        -0.404552
 C         3.371969         0.219277         0.955146
 O         1.995019         0.376167         1.361551
 H        -0.443502        -0.715774         0.816292
 H        -0.593497         0.846865        -0.101675
 H        -0.288991        -0.567572        -0.923669
 H         1.900597         0.884879        -1.918960
 H         1.908683         2.247825        -0.631843
 H         4.364721         1.867636        -0.574418
 H         4.151443        -0.776693        -1.967177
 H         5.399710        -0.304691        -0.692343
 H         3.612675        -2.088445         0.521009
 H         3.991730         0.464821         1.846022
