19
Iteration:  1396
 C        -0.089588         0.151615         0.049941
 C         1.485548        -0.023743        -0.056822
 C         2.192038         1.025324        -0.893847
 C         3.596325         0.974183        -0.389735
 C         4.324045        -0.268198        -0.854867
 C         3.435938        -1.089678         0.052062
 O         1.945477        -1.287797        -0.384564
 C         3.320795         0.215168         0.985361
 O         1.962743         0.331339         1.362230
 H        -0.408386        -0.519615         1.025912
 H        -0.488614         1.155628         0.022897
 H        -0.562309        -0.426767        -0.788962
 H         2.036589         0.709101        -1.911863
 H         1.892234         2.104470        -0.769257
 H         4.102303         1.939742        -0.592977
 H         4.369653        -0.550766        -1.949332
 H         5.332873        -0.459979        -0.456795
 H         3.824763        -2.082352         0.277598
 H         3.907716         0.440769         1.878017
