19
Iteration:  3430
 C        -0.037858         0.033849         0.050088
 C         1.451897         0.086252         0.033917
 C         2.183956         1.054434        -0.978835
 C         3.664917         0.952299        -0.354886
 C         4.353293        -0.311489        -0.923843
 C         3.373047        -1.067846         0.098035
 O         1.985705        -1.241860        -0.298901
 C         3.259377         0.207934         0.957308
 O         1.930733         0.353903         1.315952
 H        -0.236072        -1.039430         0.451474
 H        -0.534845         0.927893         0.467524
 H        -0.353872        -0.036671        -1.012900
 H         2.092443         0.547661        -1.962505
 H         1.858440         2.117194        -0.940077
 H         4.019129         1.986839        -0.548999
 H         4.131615        -0.571430        -1.995423
 H         5.281443        -0.691658        -0.486679
 H         3.871583        -1.957302         0.402653
 H         3.942771         0.288202         1.857837
