19
Iteration:  2504
 C        -0.076330        -0.076119         0.101490
 C         1.394609         0.107431         0.007263
 C         2.248136         1.053365        -0.977824
 C         3.638460         0.949254        -0.323773
 C         4.330886        -0.306283        -0.917375
 C         3.350970        -1.116418         0.084813
 O         2.013223        -1.203354        -0.360483
 C         3.337761         0.202951         0.930092
 O         1.950955         0.452277         1.328012
 H        -0.321286        -0.737696         1.022004
 H        -0.656631         0.823757         0.295630
 H        -0.476307        -0.502656        -0.871094
 H         2.128056         0.671657        -1.950644
 H         1.676971         1.947961        -1.099332
 H         4.135963         1.858805        -0.431806
 H         4.196952        -0.534303        -2.047475
 H         5.307404        -0.592124        -0.571267
 H         3.676537        -2.127615         0.507037
 H         3.934808         0.273921         1.893046
