19
Iteration:  1729
 C        -0.044885         0.006554        -0.198637
 C         1.442631         0.049410         0.047774
 C         2.139159         1.108228        -0.840340
 C         3.626382         0.940250        -0.406786
 C         4.194292        -0.332303        -0.992512
 C         3.398789        -1.144432         0.174889
 O         2.005806        -1.253271        -0.177934
 C         3.346966         0.276890         0.907125
 O         2.040492         0.367033         1.375806
 H        -0.617816        -0.605697         0.575227
 H        -0.502757         0.979129        -0.199635
 H        -0.261209        -0.319499        -1.240927
 H         1.949834         0.814887        -1.851605
 H         1.836107         2.110589        -0.641580
 H         4.188003         1.894925        -0.534659
 H         4.034596        -0.519656        -2.042095
 H         5.232523        -0.444119        -0.711967
 H         3.631215        -2.114018         0.752404
 H         4.252200         0.353238         1.524782
