19
Iteration:   268charge 0 multiplicity 1
 C         0.067814        -0.119985        -0.016366
 C         1.467735         0.162847         0.077425
 C         2.177086         1.189356        -0.933026
 C         3.629122         0.977089        -0.488934
 C         4.288542        -0.396982        -0.917627
 C         3.354915        -1.124367         0.093210
 O         1.989853        -1.212946        -0.187428
 C         3.239180         0.211406         0.918590
 O         1.946205         0.354522         1.315297
 H        -0.191926        -0.761656         0.770382
 H        -0.662967         0.785781         0.049758
 H        -0.207089        -0.460395        -0.994203
 H         1.845992         1.080963        -1.997544
 H         1.835261         2.235188        -0.768923
 H         4.315841         1.893298        -0.589451
 H         4.192076        -0.813474        -1.944278
 H         5.396613        -0.456330        -0.636646
 H         3.647650        -2.142987         0.629838
 H         3.878563         0.410241         1.724607
