19
Iteration:  1297
 C        -0.035799        -0.022709        -0.127990
 C         1.416555         0.069628         0.072653
 C         2.153055         1.099694        -0.838259
 C         3.603613         0.980485        -0.431464
 C         4.219586        -0.392378        -0.927990
 C         3.393882        -1.140007         0.092020
 O         2.018339        -1.196348        -0.306798
 C         3.348008         0.166866         1.004847
 O         2.004972         0.415649         1.356734
 H        -0.394657        -1.046121         0.279083
 H        -0.380391         0.847865         0.400386
 H        -0.338783         0.076084        -1.201993
 H         2.037445         0.936465        -1.849978
 H         1.751660         2.077077        -0.634528
 H         4.258205         1.872790        -0.418654
 H         4.110480        -0.395254        -2.029972
 H         5.260197        -0.557221        -0.787026
 H         3.865178        -1.944051         0.493809
 H         3.991094         0.311079         1.912179
