19
Iteration:  1597
 C        -0.003771        -0.008428        -0.132687
 C         1.521321         0.075739         0.018135
 C         2.162285         1.160729        -0.849658
 C         3.656947         0.891589        -0.363186
 C         4.174361        -0.305336        -1.008010
 C         3.432354        -1.131475         0.117958
 O         1.963786        -1.303537        -0.207756
 C         3.306872         0.227945         1.013783
 O         1.975894         0.438190         1.273690
 H        -0.341717        -0.599405         0.694085
 H        -0.535664         0.996334         0.072905
 H        -0.238979        -0.635613        -1.092650
 H         2.083916         1.185795        -1.922323
 H         1.698352         1.988541        -0.482251
 H         4.349962         1.725759        -0.355786
 H         3.690216        -0.582871        -1.913128
 H         5.223682        -0.517233        -1.147054
 H         3.736205        -2.033200         0.722932
 H         4.017036         0.216562         1.898461
