19
Iteration:  1146
 C        -0.073248         0.119060        -0.022453
 C         1.438266         0.059665        -0.000444
 C         2.194712         1.070696        -0.948540
 C         3.610265         0.958785        -0.338946
 C         4.251868        -0.266708        -0.955088
 C         3.487445        -1.130121         0.131457
 O         2.053176        -1.270299        -0.237212
 C         3.275546         0.142911         0.934661
 O         1.922295         0.336696         1.306959
 H        -0.495748        -0.547887         0.743905
 H        -0.323047         1.101587         0.190110
 H        -0.352822        -0.205006        -1.034407
 H         2.069771         0.876856        -2.071056
 H         1.680262         2.016941        -0.685050
 H         4.101974         1.901406        -0.449763
 H         3.940351        -0.573846        -1.964354
 H         5.309837        -0.451791        -0.747388
 H         3.948298        -2.087606         0.611893
 H         4.016687         0.278832         1.769374
