19
Iteration:  3912
 C        -0.046944         0.020469        -0.069942
 C         1.465807         0.022505         0.002627
 C         2.145650         1.128063        -0.831577
 C         3.631123         0.981215        -0.401884
 C         4.194883        -0.366664        -0.963088
 C         3.431165        -1.147231         0.093111
 O         2.091174        -1.240048        -0.301258
 C         3.353808         0.224738         1.002836
 O         1.903710         0.369914         1.329961
 H        -0.358466        -0.473845         0.836922
 H        -0.238054         1.079872         0.096136
 H        -0.181198        -0.468593        -1.021199
 H         1.956223         0.986643        -1.913911
 H         1.684828         2.114599        -0.390233
 H         4.201854         1.859452        -0.415628
 H         3.820290        -0.696936        -1.912917
 H         5.256827        -0.365657        -1.030019
 H         3.587961        -2.162940         0.504409
 H         3.968708         0.516101         1.886649
