19
Iteration:  3498
 C        -0.039168        -0.063856        -0.067767
 C         1.453016         0.064904        -0.059286
 C         2.233247         1.146758        -0.912054
 C         3.615675         0.956557        -0.363743
 C         4.157737        -0.366406        -0.948900
 C         3.403508        -1.089615         0.114827
 O         2.014942        -1.267497        -0.238403
 C         3.319021         0.235930         1.026900
 O         2.011090         0.391460         1.336192
 H        -0.472000        -0.694636         0.707426
 H        -0.412934         0.940034        -0.063814
 H        -0.410038        -0.373381        -1.055536
 H         2.207775         0.924437        -2.024712
 H         1.817961         2.203499        -0.807013
 H         4.260307         1.801492        -0.253082
 H         3.766492        -0.438824        -1.976660
 H         5.199229        -0.533325        -0.899464
 H         3.656795        -2.058136         0.575133
 H         3.977711         0.458898         1.843016
