19
Iteration:    43charge 0 multiplicity 1
 C        -0.162702        -0.141791         0.161673
 C         1.412584         0.080453        -0.069165
 C         2.112129         1.065009        -0.928666
 C         3.597577         0.863517        -0.400014
 C         4.356885        -0.423996        -0.840326
 C         3.400722        -1.113981         0.140906
 O         2.066276        -1.099914        -0.307536
 C         3.386898         0.188793         0.953232
 O         1.955931         0.550132         1.187904
 H        -0.340612        -0.612427         1.112029
 H        -0.644856         0.914204         0.115400
 H        -0.636468        -0.716644        -0.631109
 H         2.078767         0.874926        -2.037473
 H         1.899553         2.147656        -0.794634
 H         4.125125         1.834426        -0.537025
 H         4.244576        -0.864374        -1.839242
 H         5.484822        -0.523909        -0.750645
 H         3.847842        -2.038168         0.409771
 H         4.057290         0.400068         1.736569
