19
Iteration:  4222charge 0 multiplicity 1
 C        -0.043681         0.002271        -0.135346
 C         1.473605         0.042039         0.059456
 C         2.225974         1.067746        -0.885934
 C         3.638990         0.964369        -0.397393
 C         4.201007        -0.353591        -0.966816
 C         3.389366        -1.041227         0.097357
 O         1.987388        -1.215427        -0.284733
 C         3.367219         0.192468         1.035966
 O         1.957175         0.366868         1.381566
 H        -0.434462        -0.732239         0.509091
 H        -0.543610         0.887401         0.220072
 H        -0.249274        -0.191527        -1.208454
 H         1.740301         0.744066        -1.816506
 H         1.681186         2.052985        -0.646312
 H         4.101149         1.896133        -0.429394
 H         4.066806        -0.611854        -2.049489
 H         5.246667        -0.406445        -0.809467
 H         3.757821        -2.010684         0.416754
 H         4.213747         0.287538         1.667874
