19
Iteration:  2840charge 0 multiplicity 1
 C        -0.092977         0.003098        -0.183543
 C         1.400797         0.068060         0.044388
 C         2.137629         1.065182        -0.855729
 C         3.667270         0.963493        -0.411353
 C         4.261155        -0.374560        -0.998196
 C         3.435788        -1.127589         0.119042
 O         2.014169        -1.208228        -0.190376
 C         3.353589         0.246443         1.012805
 O         1.981083         0.364691         1.364461
 H        -0.436467        -1.037283         0.153091
 H        -0.505530         0.914331         0.240197
 H        -0.263688         0.155297        -1.276200
 H         2.007292         0.912168        -1.952195
 H         1.784353         2.124021        -0.612686
 H         4.103299         1.953429        -0.519750
 H         4.017302        -0.584282        -2.084529
 H         5.278675        -0.492486        -0.845799
 H         3.702359        -2.126414         0.615299
 H         4.151385         0.373741         1.862317
