19
Iteration:  2786
 C        -0.087209        -0.000985         0.072436
 C         1.393089         0.046736        -0.078375
 C         2.227658         1.056209        -0.935849
 C         3.692716         0.923756        -0.375679
 C         4.258262        -0.338857        -0.929830
 C         3.415683        -1.051740         0.162889
 O         2.025386        -1.206455        -0.311259
 C         3.242642         0.187157         0.970454
 O         1.924777         0.393360         1.292103
 H        -0.124670        -0.766769         0.891401
 H        -0.427332         0.969355         0.354800
 H        -0.363081        -0.339562        -0.936958
 H         2.447050         0.882828        -2.023249
 H         1.990448         2.194549        -0.915538
 H         4.195474         1.858781        -0.222068
 H         4.019022        -0.643531        -2.009380
 H         5.274975        -0.354439        -0.733164
 H         3.723015        -2.072494         0.603982
 H         4.063010         0.240953         1.747010
