19
Iteration:   922charge 0 multiplicity 1
 C        -0.066616         0.103410        -0.144952
 C         1.460963         0.080069         0.050355
 C         2.147750         1.121269        -0.914403
 C         3.594367         0.933549        -0.421567
 C         4.237510        -0.374167        -1.028270
 C         3.514096        -1.101158         0.163495
 O         2.103155        -1.326243        -0.115972
 C         3.297617         0.277202         0.910884
 O         1.881462         0.332348         1.354559
 H        -0.637517        -0.765112         0.381978
 H        -0.414708         1.011961         0.263728
 H        -0.307821         0.005811        -1.191819
 H         2.040117         0.689280        -1.956639
 H         1.786033         2.147834        -0.861230
 H         4.279478         1.869769        -0.237554
 H         3.947935        -0.542831        -2.073551
 H         5.346560        -0.573528        -0.912081
 H         3.831766        -1.981923         0.680126
 H         3.868621         0.381824         1.795999
