19
Iteration:  1954
 C        -0.077752        -0.010758         0.126521
 C         1.438645         0.067754        -0.017279
 C         2.231589         1.118011        -0.971083
 C         3.606159         0.981077        -0.355241
 C         4.351839        -0.311064        -0.870028
 C         3.393127        -1.112687         0.121585
 O         2.000265        -1.262173        -0.331063
 C         3.287045         0.165923         0.926520
 O         1.929149         0.421188         1.218733
 H        -0.278337        -0.576685         1.070912
 H        -0.494752         0.993133         0.110656
 H        -0.324688        -0.756804        -0.659196
 H         1.946431         0.846331        -1.967228
 H         1.797111         2.034555        -0.767742
 H         4.300887         1.895944        -0.471441
 H         4.078137        -0.638789        -1.817345
 H         5.419679        -0.462834        -0.577680
 H         3.727764        -2.012064         0.600271
 H         3.908680         0.184247         1.821518
