19
Iteration:  1852charge 0 multiplicity 1
 C        -0.012914         0.025504        -0.081958
 C         1.433537         0.060480        -0.071646
 C         2.169298         1.078124        -0.925422
 C         3.615014         0.942516        -0.390995
 C         4.202144        -0.424832        -0.976162
 C         3.498304        -1.067192         0.136851
 O         2.056364        -1.267129        -0.176511
 C         3.313777         0.259392         0.961624
 O         1.918581         0.369851         1.342037
 H        -0.357773        -0.852804         0.528307
 H        -0.369435         0.946703         0.526277
 H        -0.343594         0.153003        -1.135131
 H         2.165690         1.038195        -1.973844
 H         1.658173         1.988087        -0.623890
 H         4.004314         2.058760        -0.471240
 H         3.710193        -0.606308        -1.980574
 H         5.219868        -0.517730        -0.774488
 H         3.906254        -1.999056         0.646694
 H         3.901427         0.480849         1.868635
