19
Iteration:  4456charge 0 multiplicity 1
 C        -0.066999         0.043992        -0.147242
 C         1.451424         0.054547        -0.009498
 C         2.118059         1.155797        -0.809943
 C         3.596405         0.933579        -0.371473
 C         4.215174        -0.387731        -0.959410
 C         3.425222        -1.180844         0.090000
 O         2.059969        -1.209227        -0.222795
 C         3.389116         0.253263         0.983335
 O         1.976903         0.333404         1.290116
 H        -0.432662        -0.499875         0.733381
 H        -0.443659         1.044249         0.007047
 H        -0.184393        -0.469017        -1.126381
 H         1.801982         0.914683        -1.904955
 H         1.641182         2.194665        -0.497107
 H         4.239843         1.865705        -0.305131
 H         3.985123        -0.539637        -2.124126
 H         5.281736        -0.501761        -0.595150
 H         3.695652        -2.091764         0.686790
 H         4.008804         0.448461         1.823872
