19
Iteration:  3183charge 0 multiplicity 1
 C        -0.105249         0.112283         0.044262
 C         1.414113         0.046138         0.054661
 C         2.143562         1.031583        -0.929029
 C         3.587995         1.005568        -0.428441
 C         4.424794        -0.320352        -0.847113
 C         3.446168        -1.077016         0.048729
 O         1.977373        -1.201226        -0.374768
 C         3.302090         0.140705         0.965749
 O         1.954872         0.293890         1.329431
 H        -0.613153        -0.693293         0.729136
 H        -0.434035         1.103720         0.408196
 H        -0.378679        -0.033065        -1.031705
 H         1.975954         0.800725        -1.980350
 H         1.638566         1.965817        -0.768948
 H         4.132111         1.986270        -0.359812
 H         4.677256        -0.587310        -1.954049
 H         5.405064        -0.566619        -0.291835
 H         3.701473        -2.168393         0.403643
 H         4.136107         0.267931         1.746785
