19
Iteration:  4366
 C         0.001161         0.091229        -0.050848
 C         1.465374         0.104867         0.032490
 C         2.157133         1.104013        -0.853157
 C         3.555082         0.923351        -0.386706
 C         4.241493        -0.399589        -0.915093
 C         3.482466        -1.120858         0.122852
 O         2.060974        -1.254486        -0.289641
 C         3.294127         0.261686         0.973855
 O         1.943990         0.322409         1.293098
 H        -0.542662        -0.788174         0.340389
 H        -0.665282         0.890944         0.265699
 H        -0.261865        -0.004608        -1.072269
 H         1.858658         0.796790        -1.854030
 H         1.721097         2.179252        -0.705194
 H         4.210051         1.768142        -0.442427
 H         3.903134        -0.630973        -2.075175
 H         5.340711        -0.445448        -0.895688
 H         3.792350        -2.076766         0.509377
 H         3.928422         0.472041         1.882185
