19
Iteration:  3694
 C        -0.061339        -0.117934        -0.061493
 C         1.391097         0.124403         0.017471
 C         2.162958         1.087582        -0.883698
 C         3.680770         0.940067        -0.387773
 C         4.243378        -0.354433        -0.853450
 C         3.335717        -1.086359         0.067102
 O         1.988842        -1.187457        -0.293238
 C         3.371897         0.207142         0.961298
 O         2.022016         0.447165         1.304299
 H        -0.420202        -0.803229         0.724103
 H        -0.714901         0.814228         0.061870
 H        -0.385558        -0.750795        -0.975648
 H         2.150842         0.681359        -1.879114
 H         1.933571         2.061557        -0.710964
 H         4.246684         1.857703        -0.305230
 H         4.083703        -0.570585        -2.001919
 H         5.339596        -0.453881        -0.588452
 H         3.766447        -2.027395         0.458397
 H         4.053101         0.264943         1.810991
