19
Iteration:  4437charge 0 multiplicity 1
 C        -0.056299        -0.010464         0.002054
 C         1.458712         0.050707        -0.039224
 C         2.211114         1.104340        -0.907240
 C         3.662164         0.967015        -0.360449
 C         4.212695        -0.355719        -0.936300
 C         3.392528        -1.079499         0.162252
 O         2.016474        -1.235564        -0.352521
 C         3.307475         0.193626         1.015410
 O         1.951511         0.376997         1.320245
 H        -0.439364        -0.625766         0.829611
 H        -0.542988         0.995560         0.149893
 H        -0.542989        -0.495837        -0.948777
 H         2.348126         1.010556        -2.036487
 H         1.963275         2.150498        -0.770378
 H         4.294260         1.889256        -0.409584
 H         3.825574        -0.666623        -1.837502
 H         5.325256        -0.389479        -0.978387
 H         3.852482        -2.082218         0.449067
 H         3.888625         0.336808         1.916395
