19
Iteration:  3147
 C        -0.044365         0.069605         0.040736
 C         1.482771         0.028059        -0.033374
 C         2.235307         1.113440        -0.908928
 C         3.651415         1.088455        -0.296383
 C         4.187293        -0.359869        -0.938683
 C         3.431798        -1.107480         0.058229
 O         2.013399        -1.285823        -0.341203
 C         3.315787         0.131322         1.040860
 O         1.917562         0.333946         1.285252
 H        -0.443600        -0.587333         0.773063
 H        -0.512254         1.074944        -0.086648
 H        -0.379509        -0.354285        -0.901475
 H         2.124876         0.973596        -2.033879
 H         1.923776         2.199660        -0.707933
 H         4.257428         2.048217        -0.261976
 H         3.834795        -0.683843        -2.045043
 H         5.260855        -0.498618        -0.764734
 H         3.849812        -2.063762         0.522620
 H         3.790382         0.380839         1.936403
