19
Iteration:  2612
 C        -0.140149        -0.013572         0.088741
 C         1.442775         0.002427        -0.055992
 C         2.211433         1.063099        -0.975753
 C         3.662704         0.976714        -0.392975
 C         4.338372        -0.306068        -0.922698
 C         3.399657        -1.099541         0.172473
 O         1.998903        -1.223069        -0.316392
 C         3.362805         0.235372         0.976976
 O         1.921896         0.420853         1.269671
 H        -0.441476        -0.878499         0.674693
 H        -0.359773         0.835808         0.617776
 H        -0.694389        -0.189133        -0.797585
 H         2.158956         0.894605        -2.059030
 H         1.906905         2.056552        -0.552204
 H         4.102743         1.906986        -0.589849
 H         4.166603        -0.795191        -1.950788
 H         5.330420        -0.543175        -0.596554
 H         3.632472        -2.185434         0.407859
 H         3.855790         0.263645         1.983750
