19
Iteration:  1988charge 0 multiplicity 1
 C        -0.046416         0.057882        -0.123462
 C         1.485826        -0.004269         0.085408
 C         2.135813         1.043895        -0.900687
 C         3.614328         0.975858        -0.422414
 C         4.236816        -0.326580        -0.928039
 C         3.424627        -1.070461         0.088249
 O         2.007543        -1.248816        -0.234890
 C         3.332876         0.216440         0.979567
 O         1.997865         0.370905         1.357000
 H        -0.659877        -0.502797         0.672310
 H        -0.477354         1.052429        -0.150941
 H        -0.230164        -0.322129        -1.116282
 H         2.009353         0.667059        -1.939202
 H         1.710678         2.005732        -0.747495
 H         4.059983         1.990825        -0.442155
 H         3.961557        -0.604082        -1.900689
 H         5.358449        -0.352986        -0.891778
 H         3.619472        -2.016346         0.509043
 H         4.079990         0.240886         1.801735
