19
Iteration:   414
 C        -0.117659         0.051009         0.050585
 C         1.403863         0.037749        -0.009350
 C         2.173061         1.086096        -0.862420
 C         3.614418         0.919877        -0.413917
 C         4.300023        -0.315817        -0.913585
 C         3.455923        -1.146973         0.079822
 O         2.068842        -1.283067        -0.362777
 C         3.364227         0.219323         1.027926
 O         1.908488         0.413181         1.276749
 H        -0.457962        -0.455785         1.008880
 H        -0.378663         1.064270        -0.015166
 H        -0.578189        -0.423897        -0.837073
 H         2.010653         0.990485        -1.923281
 H         1.748628         2.046006        -0.535614
 H         4.208341         1.781126        -0.439196
 H         4.076529        -0.511339        -1.987107
 H         5.374149        -0.197938        -0.756687
 H         3.818159        -2.178383         0.427438
 H         3.937142         0.411180         2.006079
