19
Iteration:  2210
 C        -0.079384         0.112437         0.071219
 C         1.402292         0.038788        -0.106051
 C         2.181255         0.961475        -1.012190
 C         3.634264         0.960706        -0.347962
 C         4.328523        -0.272713        -0.913430
 C         3.384496        -1.106619         0.113157
 O         2.024405        -1.214374        -0.349825
 C         3.355754         0.203824         1.038067
 O         1.925473         0.323080         1.358615
 H        -0.202805        -0.759423         0.706454
 H        -0.222344         1.135228         0.512720
 H        -0.670557        -0.180155        -0.856144
 H         2.078868         0.752311        -2.070543
 H         1.697021         1.976462        -0.891450
 H         4.095397         1.879087        -0.427117
 H         4.115479        -0.614734        -1.981223
 H         5.346285        -0.215855        -0.592078
 H         3.796364        -2.077183         0.580282
 H         4.001810         0.414119         1.847537
