19
Iteration:  1993
 C         0.004526         0.064042        -0.130190
 C         1.460119         0.040045         0.098559
 C         2.114381         1.021934        -0.863220
 C         3.605105         0.984363        -0.477555
 C         4.244121        -0.336977        -0.940248
 C         3.389734        -1.064358         0.130842
 O         2.025913        -1.285114        -0.244785
 C         3.315396         0.206657         0.985332
 O         2.013664         0.371817         1.346273
 H        -0.612246        -0.484514         0.518762
 H        -0.598787         1.010892        -0.140930
 H        -0.221191        -0.257535        -1.178179
 H         2.094799         0.729650        -1.928298
 H         1.776874         2.117888        -0.657029
 H         4.073184         1.957201        -0.279593
 H         3.822138        -0.561285        -2.013471
 H         5.324617        -0.244674        -0.921358
 H         3.799638        -2.024461         0.633332
 H         4.032299         0.203745         1.791983
