19
Iteration:   202
 C        -0.055364         0.060887        -0.037126
 C         1.413969         0.096152        -0.008366
 C         2.147278         1.083181        -0.960918
 C         3.585342         1.014630        -0.493958
 C         4.207990        -0.303511        -0.858165
 C         3.362162        -1.123722         0.094043
 O         2.044954        -1.317906        -0.118519
 C         3.352778         0.222531         0.913197
 O         2.043927         0.302162         1.309030
 H        -0.329704        -0.644230         0.680554
 H        -0.608414         1.125730         0.027738
 H        -0.348902        -0.344176        -0.979675
 H         2.040621         0.758252        -2.035816
 H         1.628634         2.072530        -0.975150
 H         4.233057         1.970175        -0.413068
 H         4.378015        -0.566246        -1.941529
 H         5.284109        -0.276296        -0.473808
 H         3.894141        -2.076379         0.589357
 H         3.957854         0.451710         1.778271
