19
Iteration:   469
 C        -0.027241        -0.017967         0.012414
 C         1.427070         0.018619        -0.048423
 C         2.179719         1.133106        -0.892183
 C         3.623356         0.980680        -0.358637
 C         4.252637        -0.375310        -0.931656
 C         3.366112        -1.096691         0.034410
 O         2.019694        -1.263219        -0.277121
 C         3.346050         0.232921         0.979085
 O         1.966768         0.402246         1.307068
 H        -0.357175        -0.701133         0.838727
 H        -0.335574         1.003121         0.332019
 H        -0.510665        -0.351314        -0.888346
 H         2.144519         0.987068        -1.955895
 H         1.686400         2.094009        -0.652032
 H         4.180924         1.890446        -0.330545
 H         4.084893        -0.599498        -2.007083
 H         5.313113        -0.584170        -0.647900
 H         3.740288        -2.084944         0.457294
 H         3.978741         0.443561         1.915966
