19
Iteration:    55
 C        -0.139244        -0.049648         0.080470
 C         1.385816         0.079756        -0.020128
 C         2.178770         1.078119        -0.951757
 C         3.608888         0.889274        -0.418758
 C         4.299046        -0.391862        -0.949676
 C         3.488082        -1.145300         0.164356
 O         2.094445        -1.297381        -0.286886
 C         3.322438         0.250315         0.932559
 O         1.933558         0.562066         1.278066
 H        -0.332661        -0.498691         1.074663
 H        -0.555003         0.948133         0.134773
 H        -0.655051        -0.629801        -0.710186
 H         2.080179         0.974797        -2.035478
 H         1.811099         2.059132        -0.616341
 H         4.128956         1.833431        -0.335629
 H         4.023097        -0.630548        -1.984395
 H         5.350056        -0.385146        -0.675754
 H         3.695941        -2.074813         0.578694
 H         4.004344         0.468646         1.746082
