19
Iteration:  4326charge 0 multiplicity 1
 C        -0.057461        -0.027627        -0.096588
 C         1.450385         0.090724         0.040874
 C         2.200005         1.132126        -0.847580
 C         3.697347         0.959232        -0.331283
 C         4.184175        -0.337531        -1.002080
 C         3.385064        -1.125561         0.106110
 O         1.955222        -1.321415        -0.218018
 C         3.337641         0.217162         0.986960
 O         1.977327         0.422297         1.259008
 H        -0.214023        -0.963226         0.501989
 H        -0.399862         0.985955         0.098217
 H        -0.204153        -0.318909        -1.174010
 H         2.119664         1.039259        -1.955858
 H         1.778609         2.106690        -0.542918
 H         4.176465         1.994879        -0.246437
 H         4.039432        -0.438985        -1.999054
 H         5.247093        -0.507726        -0.860440
 H         3.913378        -2.041494         0.492511
 H         3.973679         0.450954         1.841239
