19
Iteration:  3663charge 0 multiplicity 1
 C         0.007762         0.031459        -0.138035
 C         1.403492         0.042740         0.014104
 C         2.151655         1.149122        -0.802713
 C         3.638918         0.946173        -0.410534
 C         4.186625        -0.351851        -0.945609
 C         3.433499        -1.153524         0.131476
 O         2.055514        -1.315367        -0.173994
 C         3.339185         0.310999         0.954714
 O         1.951747         0.331504         1.258416
 H        -0.345821        -0.621925         0.633613
 H        -0.276153         1.117691         0.003525
 H        -0.346296        -0.190621        -1.180792
 H         1.942869         0.919153        -1.893077
 H         1.767304         2.196250        -0.667770
 H         4.273181         1.793884        -0.242867
 H         3.606092        -0.551062        -1.945161
 H         5.276178        -0.385868        -1.110564
 H         3.925798        -2.044108         0.613813
 H         3.850409         0.625673         1.886778
