19
Iteration:  1722
 C        -0.057806        -0.014487        -0.197445
 C         1.413560         0.038874         0.044777
 C         2.177340         1.081986        -0.861561
 C         3.602280         0.917477        -0.400046
 C         4.183979        -0.369260        -0.941119
 C         3.408003        -1.111156         0.175726
 O         1.971400        -1.216386        -0.208099
 C         3.406865         0.258492         0.954621
 O         2.059530         0.406296         1.340969
 H        -0.483355        -0.796939         0.512256
 H        -0.485637         0.981417         0.015471
 H        -0.300259        -0.422179        -1.161458
 H         1.958509         0.891624        -1.898797
 H         1.742224         2.064641        -0.592239
 H         4.115132         1.977994        -0.494081
 H         4.037612        -0.470103        -2.081957
 H         5.280554        -0.230820        -0.889584
 H         3.515137        -2.130726         0.583103
 H         4.238648         0.299570         1.674779
