19
Iteration:  2000
 C         0.000676         0.071698        -0.156848
 C         1.407960         0.129235         0.064727
 C         2.135150         1.046909        -0.814059
 C         3.565213         0.979736        -0.461697
 C         4.207302        -0.329516        -1.016128
 C         3.378952        -1.116465         0.221552
 O         2.062099        -1.333732        -0.252262
 C         3.352692         0.200080         0.958217
 O         1.995186         0.376598         1.346847
 H        -0.487173        -0.797377         0.433853
 H        -0.332148         1.074408         0.010224
 H        -0.063117        -0.286850        -1.147474
 H         1.934985         0.918597        -1.924281
 H         1.739766         2.069997        -0.632143
 H         4.197466         1.833057        -0.366571
 H         3.931015        -0.576573        -2.029807
 H         5.334695        -0.372047        -0.866762
 H         4.000257        -1.875739         0.662293
 H         3.972569         0.369172         1.887857
