19
Iteration:  4787charge 0 multiplicity 1
 C        -0.014848        -0.004542         0.058326
 C         1.455755         0.038957         0.004472
 C         2.214007         1.188828        -0.924052
 C         3.620443         0.953235        -0.391712
 C         4.193184        -0.345354        -0.940492
 C         3.427084        -1.101178         0.085139
 O         2.056181        -1.257940        -0.322523
 C         3.305841         0.204345         1.041483
 O         1.900250         0.365211         1.252408
 H        -0.592281        -0.734270         0.624595
 H        -0.422014         0.958433         0.407677
 H        -0.094605        -0.308505        -0.955882
 H         2.158813         0.948429        -2.067977
 H         1.744566         2.114388        -0.650575
 H         4.316003         1.780979        -0.209058
 H         4.026317        -0.537975        -1.929977
 H         5.241467        -0.607327        -0.749171
 H         3.790215        -2.028802         0.548199
 H         3.831369         0.313599         1.986435
