19
Iteration:   931charge 0 multiplicity 1
 C        -0.023295         0.029499        -0.106756
 C         1.451009         0.116992         0.067442
 C         2.150197         1.127065        -0.866942
 C         3.597862         0.975153        -0.511535
 C         4.257244        -0.401178        -0.963350
 C         3.450071        -1.116076         0.190792
 O         2.038557        -1.274355        -0.183532
 C         3.302155         0.168713         0.990011
 O         1.913704         0.373555         1.313626
 H        -0.558699        -0.882241         0.467644
 H        -0.464697         0.971757         0.050291
 H        -0.315918         0.007970        -1.205673
 H         1.986756         0.773835        -1.972863
 H         1.681128         2.036654        -0.921326
 H         4.207381         1.932574        -0.477753
 H         4.134278        -0.590745        -2.013439
 H         5.390750        -0.380638        -0.799027
 H         4.144643        -1.878932         0.528383
 H         4.053712         0.443474         1.760856
