19
Iteration:  2628charge 0 multiplicity 1
 C        -0.063668        -0.032857         0.142186
 C         1.372526         0.093083        -0.046842
 C         2.188669         1.134426        -0.917388
 C         3.644533         0.910464        -0.426663
 C         4.275280        -0.451839        -0.823317
 C         3.394218        -1.100735         0.155472
 O         2.097147        -1.217695        -0.416821
 C         3.276570         0.270710         0.965155
 O         1.953869         0.386995         1.223570
 H        -0.225209        -1.025302         0.643290
 H        -0.498300         0.878895         0.743874
 H        -0.673344         0.015093        -0.819098
 H         1.997189         0.754567        -1.952291
 H         1.659937         2.061672        -0.766696
 H         4.279145         1.861935        -0.307572
 H         4.168155        -0.637129        -1.855525
 H         5.363009        -0.351040        -0.569203
 H         3.750442        -1.860656         0.796262
 H         4.027969         0.539464         1.670242
