19
Iteration:  3193charge 0 multiplicity 1
 C        -0.106377         0.086322         0.043854
 C         1.417481         0.062976         0.052345
 C         2.155962         1.151028        -0.893515
 C         3.663958         0.938508        -0.439244
 C         4.316136        -0.321681        -0.817320
 C         3.412598        -1.121600         0.081699
 O         1.989252        -1.265818        -0.420961
 C         3.358040         0.229102         0.939290
 O         1.962993         0.292545         1.351371
 H        -0.408797        -0.887186         0.544705
 H        -0.589865         0.991990         0.409604
 H        -0.493088         0.045205        -0.980758
 H         2.122667         0.678228        -1.918004
 H         1.625947         2.077368        -0.993086
 H         4.198477         1.933229        -0.439753
 H         4.351455        -0.706302        -1.937745
 H         5.324587        -0.179459        -0.324702
 H         3.859309        -2.192316         0.309105
 H         3.880967         0.339918         1.922107
