19
Iteration:  1928
 C        -0.111775        -0.057789         0.091224
 C         1.431674         0.064438        -0.081689
 C         2.203559         1.162617        -0.923387
 C         3.582658         0.877432        -0.397442
 C         4.303444        -0.406160        -0.869809
 C         3.358734        -1.110434         0.141487
 O         2.100480        -1.187267        -0.403027
 C         3.311172         0.298888         1.002190
 O         1.981149         0.407136         1.272964
 H        -0.117070        -0.721624         0.956903
 H        -0.651860         0.953279         0.351423
 H        -0.506609        -0.784356        -0.683807
 H         1.897256         0.836586        -1.916252
 H         1.713094         2.168872        -0.684655
 H         4.274250         1.844058        -0.572036
 H         4.074369        -0.820573        -1.928030
 H         5.276971        -0.410929        -0.450958
 H         3.563865        -2.144286         0.654947
 H         3.942022         0.445380         1.877873
