19
Iteration:   736charge 0 multiplicity 1
 C        -0.129863        -0.136802         0.038500
 C         1.441349         0.065951         0.008344
 C         2.286961         1.067996        -0.828566
 C         3.699669         0.963624        -0.426069
 C         4.268685        -0.424087        -0.945185
 C         3.402704        -1.063176         0.200931
 O         1.961626        -1.221685        -0.389330
 C         3.332151         0.301272         1.014778
 O         1.959006         0.455482         1.239931
 H        -0.508716        -1.056283         0.630081
 H        -0.534633         0.670601         0.563405
 H        -0.633648        -0.151003        -0.983503
 H         2.213881         1.030096        -2.020324
 H         1.878397         2.066806        -0.521443
 H         4.263143         1.934535        -0.894964
 H         4.048013        -0.647390        -1.985147
 H         5.391356        -0.490116        -0.803583
 H         3.438078        -2.007524         0.707962
 H         3.818368         0.441613         2.026325
