19
Iteration:   900
 C        -0.057760         0.076703        -0.112392
 C         1.533064        -0.041876        -0.063609
 C         2.169435         0.992279        -0.863789
 C         3.587213         0.999335        -0.443203
 C         4.125616        -0.315101        -0.915978
 C         3.459989        -1.076562         0.222645
 O         1.997329        -1.321471        -0.223775
 C         3.358589         0.254536         1.053993
 O         2.008195         0.431704         1.257399
 H        -0.730798        -0.762388         0.374158
 H        -0.272189         0.976425         0.346146
 H        -0.414081         0.104100        -1.146442
 H         2.177728         0.840915        -2.019882
 H         1.635225         1.905706        -0.613702
 H         4.196600         2.019476        -0.557046
 H         3.830710        -0.475220        -1.963409
 H         5.261354        -0.530214        -0.876593
 H         3.876764        -2.021503         0.507901
 H         3.960976         0.330612         1.967755
