19
Iteration:  3994charge 0 multiplicity 1
 C        -0.071142         0.076117         0.090226
 C         1.378656         0.025018        -0.094702
 C         2.173740         1.056389        -0.950794
 C         3.623834         0.945847        -0.348209
 C         4.255595        -0.317729        -0.895042
 C         3.466780        -1.073604         0.093941
 O         2.059747        -1.202071        -0.347655
 C         3.353566         0.209534         1.019620
 O         1.930376         0.261616         1.294573
 H        -0.421099        -0.783771         0.698595
 H        -0.177634         1.124964         0.431582
 H        -0.670759         0.206643        -0.880028
 H         1.883831         0.729714        -1.938145
 H         1.763144         1.970843        -0.933412
 H         4.211744         1.950694        -0.329419
 H         4.110743        -0.475625        -1.992635
 H         5.339260        -0.447877        -0.567594
 H         3.627970        -1.995649         0.642119
 H         4.041366         0.528181         1.818781
