19
Iteration:   965
 C        -0.090432        -0.141652         0.049658
 C         1.366214         0.114045        -0.070882
 C         2.205466         1.159656        -0.898869
 C         3.682777         0.950284        -0.395227
 C         4.304799        -0.443089        -0.857309
 C         3.349128        -1.123600         0.141431
 O         2.015597        -1.210245        -0.381706
 C         3.325940         0.215338         0.962787
 O         1.966360         0.493674         1.300470
 H        -0.324805        -0.791937         1.016954
 H        -0.532659         0.787702         0.283361
 H        -0.369880        -0.661888        -0.877798
 H         2.161782         0.829704        -1.992154
 H         1.813871         2.113007        -0.711104
 H         4.241168         1.966798        -0.382354
 H         4.204005        -0.741631        -1.905751
 H         5.382195        -0.496351        -0.511941
 H         3.666355        -2.048185         0.608605
 H         4.038692         0.568166         1.671754
