19
Iteration:  1673charge 0 multiplicity 1
 C        -0.096193        -0.034727         0.151094
 C         1.419196         0.059223        -0.117068
 C         2.203326         1.099644        -0.958852
 C         3.680095         0.954265        -0.400377
 C         4.289121        -0.371196        -0.881501
 C         3.442176        -1.072750         0.196957
 O         1.967943        -1.191947        -0.359449
 C         3.281953         0.221081         1.010272
 O         1.982990         0.378892         1.222286
 H        -0.312206        -0.976216         0.606901
 H        -0.372729         0.823881         0.846764
 H        -0.645851        -0.141377        -0.863697
 H         2.081105         1.016676        -2.102294
 H         1.825564         2.095450        -0.751287
 H         4.103889         1.905546        -0.541583
 H         4.237210        -0.834455        -1.835107
 H         5.326813        -0.603753        -0.525523
 H         3.545771        -2.097883         0.627377
 H         4.080551         0.384800         1.804305
