19
Iteration:  3091
 C        -0.025025        -0.026664        -0.151744
 C         1.457398         0.060077         0.045221
 C         2.112269         1.170880        -0.783521
 C         3.660213         0.962611        -0.413364
 C         4.252660        -0.403564        -0.909006
 C         3.351342        -1.099523         0.095132
 O         1.966180        -1.191423        -0.315080
 C         3.400291         0.171942         0.932250
 O         1.987763         0.355882         1.377990
 H        -0.471578        -0.762333         0.465561
 H        -0.630312         0.925582        -0.009887
 H        -0.131349        -0.380198        -1.178640
 H         1.797720         0.898026        -1.827794
 H         1.803693         2.274443        -0.540366
 H         4.399356         1.816544        -0.424014
 H         4.235302        -0.511895        -2.095731
 H         5.279630        -0.534078        -0.541487
 H         3.641224        -1.989335         0.688230
 H         4.024122         0.428549         1.765293
