19
Iteration:  3434charge 0 multiplicity 1
 C        -0.045523         0.020594         0.043670
 C         1.471612         0.120955         0.027610
 C         2.158348         1.042323        -0.967759
 C         3.635268         0.966883        -0.376239
 C         4.374868        -0.333038        -0.878688
 C         3.350040        -1.050922         0.087736
 O         1.986633        -1.225105        -0.316079
 C         3.257455         0.187514         0.968778
 O         1.977303         0.353960         1.291489
 H        -0.321070        -0.900539         0.475575
 H        -0.561928         0.795964         0.565163
 H        -0.370882        -0.126794        -0.976020
 H         2.041920         0.515980        -1.952755
 H         1.848730         2.133143        -0.848533
 H         3.967614         1.984751        -0.497146
 H         4.209406        -0.690329        -1.875187
 H         5.318257        -0.655221        -0.510498
 H         3.850982        -2.021669         0.415620
 H         3.890510         0.282531         1.819742
