19
Iteration:  2206charge 0 multiplicity 1
 C        -0.113650         0.115508         0.063742
 C         1.461467         0.036795        -0.082624
 C         2.182363         0.992577        -0.975295
 C         3.634284         0.960161        -0.387204
 C         4.303734        -0.306722        -0.922295
 C         3.396434        -1.096268         0.141223
 O         2.035487        -1.213081        -0.365923
 C         3.316057         0.208719         1.033058
 O         1.919511         0.315675         1.352191
 H        -0.128036        -0.772651         0.749851
 H        -0.360439         1.129488         0.473994
 H        -0.684127        -0.188027        -0.825375
 H         2.158238         0.719440        -2.056701
 H         1.749109         1.944004        -0.846228
 H         4.162737         2.007365        -0.502338
 H         4.115973        -0.698631        -1.889864
 H         5.337629        -0.214912        -0.531929
 H         3.894317        -2.059204         0.408205
 H         4.024745         0.386594         1.875133
