19
Iteration:  4334
 C        -0.067843        -0.022597        -0.105343
 C         1.505437         0.010631        -0.043111
 C         2.230722         1.151728        -0.837410
 C         3.667067         1.040344        -0.306451
 C         4.170543        -0.384200        -0.950425
 C         3.373911        -1.099664         0.079690
 O         2.000745        -1.326802        -0.188304
 C         3.307767         0.234095         0.928999
 O         1.987757         0.423271         1.296275
 H        -0.564687        -0.825910         0.547320
 H        -0.515820         0.956094         0.216371
 H        -0.259034        -0.178807        -1.152592
 H         2.143193         0.919741        -1.917799
 H         1.697087         2.174643        -0.554250
 H         4.357386         1.879308        -0.345560
 H         3.699630        -0.412980        -1.953737
 H         5.225443        -0.576173        -0.900239
 H         3.842968        -2.007591         0.432148
 H         4.029783         0.189230         1.798354
