19
Iteration:   280
 C        -0.064979        -0.047482         0.021735
 C         1.435886         0.135480        -0.024923
 C         2.153421         1.070384        -0.936271
 C         3.617040         0.936778        -0.501350
 C         4.282006        -0.363361        -0.891290
 C         3.364748        -1.077036         0.111997
 O         2.026775        -1.190335        -0.296268
 C         3.370216         0.186352         1.002670
 O         1.938470         0.405986         1.346193
 H        -0.241110        -0.823747         0.782905
 H        -0.462648         0.931628         0.333332
 H        -0.398381        -0.501759        -0.923320
 H         1.990542         0.617669        -1.943801
 H         1.865100         2.111508        -0.770072
 H         4.145651         1.913212        -0.560631
 H         4.345725        -0.545840        -1.973627
 H         5.298318        -0.470396        -0.383431
 H         3.813586        -2.103152         0.507043
 H         4.017051         0.159774         1.824982
