19
Iteration:   125charge 0 multiplicity 1
 C        -0.048694        -0.063733        -0.048665
 C         1.441292         0.095819         0.010504
 C         2.181901         1.060092        -0.880657
 C         3.650530         0.948608        -0.437520
 C         4.220070        -0.413592        -0.948791
 C         3.377631        -1.124586         0.124899
 O         2.043841        -1.274701        -0.201378
 C         3.366158         0.283023         0.899414
 O         1.937857         0.497350         1.312400
 H        -0.244791        -0.995887         0.464046
 H        -0.686192         0.754449         0.453695
 H        -0.387561        -0.141167        -1.074951
 H         1.881576         1.025539        -1.939874
 H         1.756188         2.027258        -0.513124
 H         4.206565         1.923752        -0.513481
 H         4.080345        -0.701770        -2.033988
 H         5.285680        -0.497406        -0.608177
 H         3.851186        -2.082490         0.663845
 H         4.005650         0.526691         1.780822
