19
Iteration:   951
 C        -0.061535        -0.085290        -0.050447
 C         1.495934         0.028663        -0.031498
 C         2.138088         1.064316        -0.921033
 C         3.595851         0.914077        -0.393900
 C         4.233703        -0.389507        -0.844304
 C         3.354405        -1.113226         0.140221
 O         1.999882        -1.170681        -0.328201
 C         3.357522         0.333750         0.958090
 O         2.049858         0.453234         1.334953
 H        -0.335831        -0.910501         0.716203
 H        -0.592025         0.865789         0.096043
 H        -0.566231        -0.413221        -1.041182
 H         1.982053         1.044428        -2.043716
 H         1.845394         2.060139        -0.630532
 H         4.205069         1.753955        -0.450083
 H         4.243865        -0.576838        -1.920886
 H         5.258327        -0.570905        -0.490267
 H         3.490529        -2.173939         0.581931
 H         4.030190         0.200593         1.872675
