19
Iteration:  3857charge 0 multiplicity 1
 C        -0.059164         0.006065         0.079767
 C         1.456906         0.078223         0.003618
 C         2.103792         1.029820        -0.939578
 C         3.639173         0.906343        -0.335077
 C         4.286660        -0.320660        -0.896972
 C         3.397702        -1.069685         0.043000
 O         2.013728        -1.202930        -0.394025
 C         3.347780         0.167477         1.024962
 O         1.938180         0.397037         1.285269
 H        -0.161034        -0.747735         0.831891
 H        -0.424539         1.040123         0.258909
 H        -0.454194        -0.366481        -0.916642
 H         2.163242         0.713581        -1.975451
 H         1.983285         2.145819        -0.822727
 H         4.143693         1.832318        -0.389935
 H         4.218445        -0.514477        -1.931510
 H         5.236107        -0.188628        -0.447162
 H         3.675761        -2.021340         0.543388
 H         4.031874         0.256433         1.912103
