19
Iteration:   232charge 0 multiplicity 1
 C        -0.088896        -0.034630        -0.157578
 C         1.470559        -0.030922         0.006071
 C         2.132330         1.060613        -0.833344
 C         3.700414         0.951138        -0.454946
 C         4.124906        -0.384551        -1.007227
 C         3.455661        -1.071303         0.152581
 O         2.096815        -1.227446        -0.221581
 C         3.316234         0.203609         1.019436
 O         2.000554         0.517538         1.360453
 H        -0.518105        -0.631249         0.628648
 H        -0.422747         1.065543        -0.107664
 H        -0.254582        -0.589038        -1.050176
 H         2.031264         0.851509        -1.883192
 H         1.619788         1.923552        -0.375720
 H         4.175569         1.978200        -0.550291
 H         3.489746        -0.720162        -1.867318
 H         5.156894        -0.415832        -1.250857
 H         3.695784        -1.964850         0.600228
 H         3.864596         0.363205         2.023868
