19
Iteration:  4998charge 0 multiplicity 1
 C        -0.119637        -0.026427        -0.079451
 C         1.365730         0.138555         0.018154
 C         2.137725         1.195987        -0.849598
 C         3.645329         0.941036        -0.387251
 C         4.311831        -0.405560        -0.945101
 C         3.391020        -1.071624         0.109914
 O         2.039760        -1.198743        -0.300887
 C         3.394058         0.153123         0.990741
 O         2.003499         0.347666         1.319156
 H        -0.581202        -0.838894         0.543454
 H        -0.750767         0.832339         0.177037
 H        -0.196425        -0.422622        -1.188106
 H         1.947775         0.869346        -1.867155
 H         1.732117         2.262014        -0.604648
 H         4.206251         1.892987        -0.496670
 H         4.095708        -0.772204        -1.873998
 H         5.403428        -0.578238        -0.759373
 H         3.787982        -1.966962         0.626699
 H         3.875312         0.069681         1.946788
