19
Iteration:  4079
 C        -0.030559        -0.073827        -0.079060
 C         1.498905         0.091987        -0.033376
 C         2.195575         1.161096        -0.814000
 C         3.576158         0.985838        -0.290714
 C         4.123128        -0.408226        -1.015785
 C         3.423746        -1.137133         0.084760
 O         2.038650        -1.203988        -0.274389
 C         3.384457         0.209558         1.001173
 O         1.956248         0.393686         1.317785
 H        -0.516713        -0.742154         0.681892
 H        -0.590072         0.899122         0.041912
 H        -0.150449        -0.477909        -1.133055
 H         2.172388         1.022263        -1.967892
 H         1.841624         2.259353        -0.481909
 H         4.361976         1.763383        -0.362958
 H         3.757916        -0.627665        -2.059083
 H         5.175226        -0.477710        -1.025368
 H         3.709431        -2.124880         0.559145
 H         3.986061         0.347912         1.905057
