19
Iteration:  4237
 C        -0.061379         0.025484        -0.038980
 C         1.410705         0.075541        -0.016066
 C         2.188611         1.062452        -0.887761
 C         3.642647         1.011642        -0.348390
 C         4.235826        -0.276261        -0.925031
 C         3.380019        -1.156659         0.085936
 O         1.996824        -1.289545        -0.262967
 C         3.332682         0.200831         0.935116
 O         2.017001         0.366178         1.302597
 H        -0.465014        -0.762216         0.708624
 H        -0.524870         1.042543         0.180188
 H        -0.432762        -0.326378        -0.996293
 H         2.401307         0.841078        -1.920083
 H         1.841591         2.114200        -0.763516
 H         4.281334         1.958499        -0.371681
 H         3.917659        -0.378224        -1.897219
 H         5.289422        -0.399554        -0.619691
 H         3.767041        -2.076846         0.539447
 H         3.875282         0.268039         1.931771
