19
Iteration:    31charge 0 multiplicity 1
 C        -0.068595        -0.153587         0.170477
 C         1.401804         0.131533         0.000378
 C         2.136197         1.107168        -1.004916
 C         3.660009         0.931555        -0.493443
 C         4.326530        -0.453358        -0.857287
 C         3.383712        -1.104685         0.164784
 O         2.015461        -1.131459        -0.368881
 C         3.311473         0.239848         0.982306
 O         2.009708         0.465849         1.235271
 H        -0.179657        -0.680387         1.084372
 H        -0.769689         0.796931         0.233354
 H        -0.370861        -0.796222        -0.633338
 H         1.975281         0.689987        -2.044747
 H         1.681586         2.121307        -0.888393
 H         4.311855         1.860723        -0.499265
 H         4.320058        -0.755101        -1.902124
 H         5.317220        -0.403861        -0.268838
 H         3.354325        -2.065475         0.701146
 H         3.868421         0.335938         1.882810
