19
Iteration:  4089charge 0 multiplicity 1
 C        -0.075542        -0.027211        -0.099090
 C         1.478503         0.025689        -0.008042
 C         2.154702         1.200119        -0.851819
 C         3.634396         0.970926        -0.371484
 C         4.190752        -0.352021        -0.959356
 C         3.467571        -1.133697         0.180607
 O         2.023913        -1.199654        -0.277590
 C         3.345825         0.125279         0.984568
 O         1.969186         0.375572         1.319482
 H        -0.298693        -0.740641         0.725641
 H        -0.335814         1.040666        -0.039431
 H        -0.618093        -0.379580        -0.993150
 H         2.022232         1.292092        -2.018319
 H         1.610449         2.248819        -0.426812
 H         4.250491         1.892852        -0.449844
 H         3.726401        -0.772993        -1.924983
 H         5.240065        -0.453711        -1.045085
 H         3.856369        -2.195286         0.283164
 H         4.027046         0.369060         1.803681
