19
Iteration:   651charge 0 multiplicity 1
 C        -0.025878         0.066240        -0.099438
 C         1.443592         0.068655         0.042059
 C         2.184801         1.128004        -0.922099
 C         3.587200         0.943091        -0.391747
 C         4.145304        -0.315682        -0.954307
 C         3.481845        -1.109526         0.194383
 O         2.048380        -1.275559        -0.213795
 C         3.345037         0.171532         1.013303
 O         1.972486         0.367102         1.253875
 H        -0.437739        -0.658307         0.777041
 H        -0.383498         1.042104        -0.150344
 H        -0.253434        -0.371605        -1.119746
 H         1.902451         0.888353        -1.977035
 H         1.572790         1.958588        -0.570508
 H         4.269460         1.762709        -0.705753
 H         3.747993        -0.459515        -1.931834
 H         5.236749        -0.490174        -0.902532
 H         3.874557        -2.089517         0.467429
 H         3.919162         0.351233         1.976239
