19
Iteration:  1184charge 0 multiplicity 1
 C         0.004505        -0.055151        -0.134261
 C         1.475541         0.030098         0.044301
 C         2.192844         1.136440        -0.782647
 C         3.614601         0.919962        -0.444011
 C         4.181863        -0.367939        -0.915815
 C         3.368256        -1.073004         0.141397
 O         2.017634        -1.223168        -0.278640
 C         3.360793         0.163557         0.934109
 O         1.969437         0.463454         1.340514
 H        -0.390809        -0.699849         0.632834
 H        -0.670197         0.887013        -0.284528
 H        -0.265422        -0.566851        -1.073399
 H         2.138663         1.168546        -1.868428
 H         1.776670         2.092518        -0.352883
 H         4.259300         1.807969        -0.284803
 H         3.779244        -0.502245        -1.930346
 H         5.252780        -0.474384        -1.079263
 H         3.626776        -2.036573         0.467077
 H         4.042961         0.260206         1.756441
