19
Iteration:  2651
 C        -0.039861        -0.077629         0.017396
 C         1.435016         0.118840        -0.024383
 C         2.114442         1.105777        -0.966511
 C         3.582670         0.920422        -0.510510
 C         4.304438        -0.441953        -0.837862
 C         3.452484        -1.144542         0.159119
 O         2.029198        -1.123345        -0.329981
 C         3.291431         0.170680         1.009266
 O         1.970825         0.420561         1.337216
 H        -0.145840        -1.048336         0.538076
 H        -0.592015         0.791644         0.579802
 H        -0.615061         0.075439        -0.964167
 H         1.995083         0.993088        -2.083368
 H         1.799044         2.143070        -0.751706
 H         4.261918         1.857341        -0.455573
 H         4.201373        -0.620610        -1.869379
 H         5.381815        -0.227669        -0.644804
 H         3.705564        -2.033645         0.687256
 H         4.041042         0.322205         1.772854
