19
Iteration:  2860charge 0 multiplicity 1
 C        -0.089627        -0.084236        -0.069598
 C         1.524385         0.127648         0.029844
 C         2.237866         1.171465        -0.920838
 C         3.645539         0.968772        -0.334640
 C         4.149671        -0.357243        -0.935186
 C         3.388603        -1.095711         0.124988
 O         2.014053        -1.275075        -0.277600
 C         3.314249         0.186144         1.006490
 O         1.951808         0.424937         1.273329
 H        -0.195594        -1.018920         0.515862
 H        -0.620661         0.696475         0.433233
 H        -0.430435        -0.138149        -1.110020
 H         2.162151         0.826531        -1.923762
 H         1.894772         2.125824        -0.854162
 H         4.411686         1.735674        -0.326099
 H         3.857563        -0.693721        -1.937725
 H         5.198806        -0.455848        -0.752339
 H         3.823889        -1.998926         0.517368
 H         4.114744         0.351917         1.779322
