19
Iteration:   834
 C         0.020960        -0.027524         0.093511
 C         1.426505         0.115921        -0.054227
 C         2.188358         1.091519        -0.949580
 C         3.555463         0.916206        -0.367633
 C         4.251597        -0.416907        -0.818044
 C         3.335557        -1.157855         0.142195
 O         2.073259        -1.218298        -0.409762
 C         3.315517         0.263679         0.939616
 O         1.967400         0.458608         1.274472
 H        -0.052990        -0.793109         0.933155
 H        -0.535050         0.822721         0.153798
 H        -0.274014        -0.613395        -0.820588
 H         1.869018         1.000710        -2.068272
 H         1.852541         2.087683        -0.666752
 H         3.992178         2.026864        -0.306083
 H         4.194956        -0.596750        -1.891366
 H         5.301244        -0.681293        -0.419121
 H         3.580395        -2.060115         0.686071
 H         4.015660         0.372391         1.810307
