19
Iteration:  4828charge 0 multiplicity 1
 C        -0.059210         0.007751         0.016895
 C         1.436398         0.071293         0.073405
 C         2.159532         1.099138        -0.911888
 C         3.642507         0.965709        -0.390792
 C         4.383026        -0.345325        -0.906807
 C         3.392689        -1.079296         0.049003
 O         2.004215        -1.245289        -0.338113
 C         3.261398         0.171259         0.984538
 O         1.960247         0.345741         1.316086
 H        -0.590705        -0.540077         0.755779
 H        -0.486411         1.041189         0.131526
 H        -0.454038        -0.207732        -1.038090
 H         1.869824         0.754370        -1.929643
 H         1.938503         2.135897        -0.739665
 H         4.052736         1.977145        -0.380570
 H         4.396282        -0.618679        -2.010276
 H         5.296735        -0.320411        -0.438783
 H         3.730189        -2.095246         0.298481
 H         3.942000         0.402202         1.816362
