19
Iteration:  4664charge 0 multiplicity 1
 C        -0.113021        -0.053540         0.013616
 C         1.385996         0.044558         0.053025
 C         2.183179         1.125229        -0.927326
 C         3.616546         0.960352        -0.409991
 C         4.326531        -0.324422        -0.883327
 C         3.351705        -1.144961         0.099121
 O         2.040362        -1.129308        -0.346327
 C         3.331555         0.162856         0.965666
 O         1.981453         0.354931         1.319857
 H        -0.441772        -0.593270         0.897563
 H        -0.443038         1.003127         0.171759
 H        -0.598741        -0.496912        -0.914027
 H         2.207342         0.711546        -1.972524
 H         1.958378         2.229155        -0.901345
 H         4.255414         1.905563        -0.409729
 H         4.345949        -0.490173        -2.016351
 H         5.341903        -0.496536        -0.395335
 H         3.759551        -2.172903         0.298037
 H         3.994700         0.377581         1.820125
