19
Iteration:  1505charge 0 multiplicity 1
 C        -0.025000         0.134380         0.019867
 C         1.398615        -0.043601        -0.006346
 C         2.237688         1.028747        -0.930962
 C         3.644169         1.039701        -0.303076
 C         4.274390        -0.313739        -0.928796
 C         3.391494        -1.078489         0.107227
 O         2.013652        -1.279731        -0.302587
 C         3.310047         0.205433         0.944715
 O         1.947484         0.338477         1.264101
 H        -0.502134        -0.775906         0.591954
 H        -0.325688         1.001173         0.555148
 H        -0.595155        -0.012267        -0.845477
 H         2.055494         0.757439        -2.016996
 H         1.644311         2.034713        -0.785746
 H         4.300638         1.888664        -0.455805
 H         4.061791        -0.744555        -1.917597
 H         5.359670        -0.408696        -0.834297
 H         3.856046        -1.848048         0.655940
 H         3.713447         0.322205         1.918942
