19
Iteration:  4547
 C        -0.096903        -0.014273         0.060490
 C         1.411870         0.051885         0.063845
 C         2.153612         1.096015        -0.913574
 C         3.642290         0.975414        -0.390830
 C         4.319398        -0.377544        -0.862478
 C         3.433285        -1.076662         0.139368
 O         2.014915        -1.189141        -0.377540
 C         3.347689         0.189099         0.890926
 O         1.946149         0.367728         1.228198
 H        -0.282383        -0.857269         0.684363
 H        -0.515525         0.892532         0.554795
 H        -0.497007        -0.010669        -0.989184
 H         2.171098         0.841022        -2.032288
 H         1.786234         2.005342        -0.512690
 H         4.143295         1.936030        -0.434727
 H         4.330017        -0.691545        -1.831200
 H         5.264697        -0.421102        -0.212270
 H         3.547724        -2.127761         0.502671
 H         3.861665         0.277059         1.881989
