19
Iteration:  1610
 C        -0.041099         0.019615        -0.090592
 C         1.426272         0.013971        -0.014925
 C         2.252958         1.116591        -0.853586
 C         3.630840         1.024689        -0.338246
 C         4.119028        -0.400441        -1.002619
 C         3.376730        -1.101267         0.128952
 O         2.033363        -1.314997        -0.215011
 C         3.371233         0.219157         0.947478
 O         1.972665         0.414524         1.332676
 H        -0.468846        -0.674402         0.639094
 H        -0.403117         1.046875        -0.082102
 H        -0.269237        -0.274998        -1.162265
 H         2.143513         0.886600        -1.852645
 H         1.874308         2.092670        -0.649639
 H         4.193441         2.031784        -0.320089
 H         3.846644        -0.487987        -2.088510
 H         5.171993        -0.500539        -0.824236
 H         3.906871        -2.053472         0.391123
 H         3.997552         0.455540         1.840141
