19
Iteration:  4398charge 0 multiplicity 1
 C        -0.129343        -0.015517         0.040607
 C         1.362456         0.034537        -0.103117
 C         2.197924         1.098883        -0.921316
 C         3.617221         0.895768        -0.399268
 C         4.340567        -0.311321        -0.792025
 C         3.442165        -1.126366         0.055417
 O         1.929388        -1.176339        -0.342467
 C         3.318757         0.232627         1.002504
 O         2.066578         0.396106         1.318659
 H        -0.191171        -0.977391         0.595788
 H        -0.564479         0.948396         0.321338
 H        -0.567155        -0.244053        -0.904045
 H         2.027028         0.899638        -1.960488
 H         1.806555         2.116836        -0.644864
 H         4.148743         1.812303        -0.448845
 H         4.389928        -0.703057        -1.990690
 H         5.380809        -0.424902        -0.452828
 H         3.504171        -2.090462         0.480011
 H         4.054159         0.273597         1.873962
