19
Iteration:  3247
 C        -0.084182        -0.064676        -0.131855
 C         1.465929         0.131307         0.028525
 C         2.272313         1.230494        -0.873012
 C         3.651152         0.950316        -0.366654
 C         4.133783        -0.361407        -0.974917
 C         3.313412        -1.132145         0.139535
 O         2.034390        -1.296051        -0.252687
 C         3.392015         0.220949         0.972349
 O         1.985223         0.375315         1.324836
 H        -0.427631        -1.069030         0.188994
 H        -0.690206         0.530750         0.474491
 H        -0.265671        -0.137534        -1.170650
 H         2.222250         1.116796        -2.002398
 H         1.860440         2.094893        -0.355839
 H         4.091936         1.977634        -0.241443
 H         3.850876        -0.446974        -2.103891
 H         5.172232        -0.607823        -0.798052
 H         3.926398        -2.058177         0.480631
 H         3.936036         0.459843         1.932855
