19
Iteration:  2289
 C        -0.016288        -0.086127        -0.136856
 C         1.388570         0.109941        -0.031990
 C         2.179484         1.245533        -0.832827
 C         3.623958         0.878147        -0.405184
 C         4.130809        -0.419378        -0.961386
 C         3.375523        -1.156468         0.195931
 O         2.082005        -1.211426        -0.325354
 C         3.369783         0.252458         1.055969
 O         2.010997         0.409745         1.336023
 H        -0.202290        -0.955128         0.560726
 H        -0.604678         0.648819         0.323364
 H        -0.293211        -0.298835        -1.152209
 H         1.829546         1.075386        -1.881470
 H         1.769799         2.271580        -0.484932
 H         4.154679         1.795729        -0.585291
 H         3.817210        -0.610765        -2.004746
 H         5.239703        -0.552193        -1.027388
 H         3.905398        -2.016878         0.532242
 H         3.998792         0.408993         2.031594
