19
Iteration:  3877
 C        -0.088145         0.018753         0.044908
 C         1.478227         0.068109         0.008114
 C         2.164088         1.060814        -0.946495
 C         3.630612         1.053264        -0.360933
 C         4.363254        -0.279963        -0.877065
 C         3.343801        -1.196752        -0.001507
 O         1.988082        -1.242240        -0.254046
 C         3.331069         0.157629         0.930674
 O         1.960407         0.352834         1.334762
 H        -0.545370        -0.551934         0.765531
 H        -0.551608         0.997595        -0.017609
 H        -0.622248        -0.346954        -0.868951
 H         2.157947         0.708995        -2.013551
 H         1.632859         2.188066        -0.999646
 H         4.157962         1.985327        -0.140372
 H         4.276702        -0.500152        -1.903731
 H         5.448767        -0.260750        -0.541387
 H         3.739174        -2.143970         0.351729
 H         4.176228         0.394834         1.592313
