19
Iteration:   702
 C        -0.002359        -0.023828         0.080075
 C         1.416841         0.196265        -0.014799
 C         2.195613         1.118393        -0.990609
 C         3.488738         0.939955        -0.420652
 C         4.329397        -0.350073        -0.857449
 C         3.399570        -1.220308         0.148506
 O         1.988848        -1.210163        -0.292715
 C         3.334671         0.169699         0.972448
 O         1.977610         0.381357         1.227664
 H        -0.118877        -0.952671         0.615685
 H        -0.399973         0.833627         0.666682
 H        -0.469641        -0.039486        -0.951984
 H         2.150664         0.698531        -2.081808
 H         1.669256         2.079284        -0.934764
 H         4.139057         1.929467        -0.390081
 H         4.340338        -0.658932        -1.930559
 H         5.353816        -0.108877        -0.484353
 H         3.773948        -2.092031         0.717941
 H         3.866744         0.436885         1.883537
