19
Iteration:  2373
 C        -0.135991         0.074838         0.113857
 C         1.397286         0.071687         0.005814
 C         2.186680         1.145447        -0.928457
 C         3.595554         0.981701        -0.438136
 C         4.294730        -0.368024        -0.850967
 C         3.534551        -1.139622         0.137561
 O         2.056552        -1.274754        -0.370248
 C         3.339782         0.229287         0.929505
 O         1.902708         0.309954         1.267829
 H        -0.388474        -0.629670         0.941733
 H        -0.451967         1.138519         0.057835
 H        -0.370861        -0.428523        -0.874405
 H         2.049347         0.934659        -1.969669
 H         1.833211         2.083975        -0.554961
 H         4.155258         1.897517        -0.447510
 H         4.126518        -0.590294        -1.938157
 H         5.335646        -0.361342        -0.632590
 H         3.740819        -2.175330         0.570850
 H         3.792853         0.446279         1.934798
