19
Iteration:  3068charge 0 multiplicity 1
 C        -0.088519         0.090322         0.007957
 C         1.460433         0.048244        -0.060719
 C         2.183349         1.090087        -0.940170
 C         3.587611         0.956168        -0.333549
 C         4.275130        -0.328821        -0.913768
 C         3.424037        -1.107153         0.090011
 O         2.067512        -1.246526        -0.301435
 C         3.305916         0.169297         1.048875
 O         1.936525         0.322266         1.294654
 H        -0.516189        -0.639366         0.682238
 H        -0.458946         1.062421         0.381968
 H        -0.555722        -0.065182        -0.964389
 H         2.235386         0.858722        -2.038269
 H         1.930874         2.239043        -0.843170
 H         4.274220         1.792649        -0.370638
 H         3.927127        -0.466411        -2.027217
 H         5.376848        -0.428484        -0.829508
 H         3.773266        -2.072012         0.418099
 H         3.894929         0.310515         2.001271
