19
Iteration:   856
 C        -0.174008        -0.114268         0.041586
 C         1.344660         0.066238         0.000622
 C         2.183720         1.136660        -0.934840
 C         3.737350         0.920516        -0.428669
 C         4.331212        -0.433471        -0.871168
 C         3.431003        -1.099822         0.169960
 O         1.992679        -1.092185        -0.359869
 C         3.319577         0.223753         0.978195
 O         1.967164         0.424225         1.291095
 H        -0.265834        -1.014779         0.798045
 H        -0.602359         0.754988         0.365475
 H        -0.599046        -0.536156        -0.893287
 H         1.890218         0.713433        -2.014058
 H         1.985419         2.203271        -0.992273
 H         4.449787         1.872412        -0.694444
 H         4.347803        -0.918676        -1.849736
 H         5.449617        -0.284629        -0.566487
 H         3.685410        -2.019688         0.661031
 H         3.937742         0.357478         1.900352
