19
Iteration:  1463
 C        -0.038185        -0.099850        -0.135211
 C         1.418097         0.140306         0.030970
 C         2.143467         1.185995        -0.783398
 C         3.627442         0.934166        -0.434804
 C         4.193023        -0.422965        -0.920002
 C         3.398762        -1.076289         0.144226
 O         1.986057        -1.205614        -0.260676
 C         3.377740         0.191706         0.945577
 O         2.021084         0.418422         1.324231
 H        -0.290799        -1.217290         0.170389
 H        -0.653712         0.758505         0.234703
 H        -0.109752        -0.042971        -1.223161
 H         2.033570         1.006559        -1.896327
 H         1.666670         2.109253        -0.572090
 H         4.191106         1.821647        -0.271753
 H         4.100111        -0.777632        -1.929794
 H         5.307359        -0.535490        -0.729267
 H         3.719034        -2.073031         0.509722
 H         4.197933         0.142021         1.612540
