19
Iteration:   133
 C        -0.029343        -0.091493         0.001056
 C         1.469894         0.047520        -0.080639
 C         2.188461         1.132091        -0.937904
 C         3.628357         0.908519        -0.451028
 C         4.233672        -0.404479        -0.931525
 C         3.382871        -1.086823         0.189179
 O         1.989810        -1.211222        -0.203649
 C         3.302670         0.301779         0.936854
 O         1.990239         0.427173         1.319962
 H        -0.207002        -1.064371         0.548666
 H        -0.450947         0.704857         0.519637
 H        -0.479599        -0.197347        -1.011836
 H         2.043129         1.019960        -2.005262
 H         1.756518         2.093148        -0.656865
 H         4.201752         1.809204        -0.506392
 H         4.159546        -0.694677        -1.991373
 H         5.261758        -0.492663        -0.704642
 H         3.544622        -2.017843         0.596243
 H         4.091687         0.529022         1.725530
