19
Iteration:  2880
 C        -0.061950        -0.086673         0.072772
 C         1.529177         0.036588        -0.176412
 C         2.178081         1.136252        -0.904185
 C         3.630359         0.936678        -0.341728
 C         4.310727        -0.389402        -0.917821
 C         3.329926        -1.120239         0.167327
 O         2.007643        -1.185305        -0.331979
 C         3.307754         0.214163         0.984776
 O         1.950644         0.447005         1.278327
 H        -0.236352        -0.824828         0.859983
 H        -0.518638         0.770186         0.516519
 H        -0.534313        -0.259280        -0.887180
 H         2.212329         1.147238        -1.970035
 H         1.756521         2.042121        -0.565158
 H         4.231571         1.849372        -0.344667
 H         3.978068        -0.530013        -1.928738
 H         5.454807        -0.522549        -0.777181
 H         3.558289        -2.069129         0.466174
 H         3.798690         0.310270         1.950390
