19
Iteration:  1497
 C        -0.054423         0.067409        -0.021057
 C         1.475715         0.007277        -0.029701
 C         2.142958         1.024729        -0.880614
 C         3.673140         0.985704        -0.341810
 C         4.235946        -0.370589        -0.949476
 C         3.424411        -0.996844         0.097803
 O         2.035954        -1.257276        -0.261765
 C         3.292594         0.211181         0.951213
 O         1.928776         0.338600         1.294228
 H        -0.554918        -0.746206         0.590349
 H        -0.291665         1.038585         0.565471
 H        -0.422120         0.185761        -1.074949
 H         2.252853         0.784153        -1.965495
 H         1.834103         1.981361        -0.746764
 H         4.257815         1.884029        -0.300731
 H         3.985372        -0.671260        -1.940458
 H         5.308544        -0.361708        -0.691785
 H         3.662255        -2.032767         0.432416
 H         3.968407         0.313503         1.780689
