19
Iteration:  1159
 C        -0.056982         0.084336        -0.095092
 C         1.468034         0.053743        -0.030944
 C         2.182635         1.170784        -0.861141
 C         3.593640         0.988888        -0.395071
 C         4.180405        -0.366845        -0.976203
 C         3.395807        -1.086628         0.109425
 O         2.049904        -1.326474        -0.176647
 C         3.380956         0.248809         1.032326
 O         1.954603         0.273005         1.275663
 H        -0.391854        -0.594427         0.763293
 H        -0.468750         1.043521        -0.024325
 H        -0.552359        -0.252448        -0.974591
 H         2.224090         0.810791        -1.994526
 H         1.865185         2.219892        -0.829169
 H         4.271127         1.738685        -0.206215
 H         4.011121        -0.514427        -2.034287
 H         5.297574        -0.250583        -0.950170
 H         3.776757        -2.155008         0.415705
 H         3.882694         0.512226         1.939697
