19
Iteration:  4501charge 0 multiplicity 1
 C        -0.067289        -0.050380        -0.068480
 C         1.403904         0.132726         0.002935
 C         2.206477         1.128542        -0.853246
 C         3.617133         0.911206        -0.305761
 C         4.211041        -0.381372        -0.973734
 C         3.394561        -1.055108         0.108957
 O         2.058775        -1.210334        -0.239487
 C         3.320484         0.218761         0.976278
 O         2.002313         0.356538         1.256717
 H        -0.428589        -0.703468         0.684158
 H        -0.406058         0.951280         0.168640
 H        -0.237435        -0.277547        -1.126876
 H         2.208091         0.768708        -1.918697
 H         1.596158         2.009387        -0.714483
 H         4.169212         1.893297        -0.370696
 H         3.905854        -0.579649        -2.006321
 H         5.308971        -0.584387        -0.701509
 H         3.642027        -2.117912         0.329034
 H         3.952531         0.277732         1.825274
