19
Iteration:  1995charge 0 multiplicity 1
 C         0.018126         0.067865        -0.134173
 C         1.441148         0.065337         0.092724
 C         2.112360         1.024207        -0.848761
 C         3.591415         0.981138        -0.487139
 C         4.240828        -0.337857        -0.960757
 C         3.380710        -1.075635         0.157773
 O         2.035228        -1.299312        -0.248500
 C         3.320258         0.202801         0.981884
 O         2.014329         0.372538         1.345061
 H        -0.601056        -0.564131         0.494621
 H        -0.575510         1.046155        -0.111834
 H        -0.198875        -0.274782        -1.211142
 H         2.087914         0.789117        -1.887341
 H         1.808345         2.054304        -0.656301
 H         4.142544         1.994129        -0.249051
 H         3.832928        -0.540170        -1.987696
 H         5.303057        -0.250552        -0.913213
 H         3.867866        -1.963849         0.641957
 H         4.005751         0.225829         1.806872
