19
Iteration:  3511
 C        -0.066864         0.018660        -0.185420
 C         1.459326         0.027203         0.119318
 C         2.210616         1.105836        -0.958952
 C         3.625868         1.006103        -0.320895
 C         4.186069        -0.303111        -0.998939
 C         3.385302        -1.176334         0.093590
 O         2.006652        -1.291693        -0.203378
 C         3.376164         0.182182         0.987994
 O         1.973665         0.469606         1.375022
 H        -0.477378        -0.576203         0.550842
 H        -0.602597         0.960049        -0.035845
 H        -0.061978        -0.534554        -1.096914
 H         2.058560         0.819632        -2.047363
 H         1.657275         2.104771        -0.653279
 H         4.143243         1.941508        -0.389900
 H         3.991938        -0.755800        -1.944705
 H         5.191729        -0.367557        -0.901174
 H         3.999415        -2.118055         0.193234
 H         4.018203         0.182687         1.832979
