19
Iteration:   382
 C        -0.026589        -0.177767        -0.099249
 C         1.487016         0.083657         0.006905
 C         2.171664         1.211165        -0.902513
 C         3.654334         0.957550        -0.382260
 C         4.191826        -0.389548        -0.957572
 C         3.348590        -1.154096         0.093628
 O         2.007810        -1.128755        -0.231328
 C         3.393544         0.227346         0.992933
 O         1.931029         0.387545         1.355329
 H        -0.205952        -0.887827         0.735639
 H        -0.504786         0.747287         0.158474
 H        -0.219607        -0.470701        -1.128755
 H         1.997383         1.154591        -1.960450
 H         1.800391         2.204006        -0.580712
 H         4.413024         1.702105        -0.418315
 H         3.827483        -0.634135        -1.974752
 H         5.240843        -0.563431        -1.004267
 H         3.622423        -2.203790         0.370453
 H         4.082439         0.542776         1.885970
