19
Iteration:  1268charge 0 multiplicity 1
 C        -0.124163         0.117336         0.013729
 C         1.458383         0.059192        -0.024838
 C         2.181261         1.043530        -0.940656
 C         3.588873         0.986496        -0.404402
 C         4.290745        -0.310457        -0.909207
 C         3.410530        -1.088956         0.114270
 O         2.027629        -1.254114        -0.292947
 C         3.332682         0.156023         0.968912
 O         1.967193         0.286008         1.310198
 H        -0.550402        -0.700616         0.643554
 H        -0.280549         0.978498         0.628554
 H        -0.594675         0.240003        -0.948808
 H         2.279741         0.706709        -2.049203
 H         1.730555         2.045054        -0.927331
 H         4.159001         1.890089        -0.393562
 H         4.258543        -0.308980        -1.991883
 H         5.348126        -0.334830        -0.475817
 H         3.911786        -2.045379         0.620826
 H         3.880878         0.280854         1.885762
