19
Iteration:   646
 C         0.006906        -0.014403        -0.090659
 C         1.465270         0.085965         0.023812
 C         2.181476         1.153997        -0.925403
 C         3.605993         0.996482        -0.409322
 C         4.080092        -0.353166        -0.889512
 C         3.435197        -1.142904         0.136169
 O         2.054433        -1.240828        -0.189650
 C         3.354100         0.171657         1.011872
 O         1.971086         0.354039         1.257914
 H        -0.336348        -0.512329         0.688796
 H        -0.401353         1.082143        -0.193349
 H        -0.245864        -0.408660        -1.058071
 H         1.980644         0.946087        -2.005095
 H         1.627273         2.071459        -0.613309
 H         4.348162         1.787204        -0.746819
 H         3.745753        -0.466614        -1.975413
 H         5.154770        -0.542272        -0.820231
 H         4.033764        -2.006169         0.522105
 H         3.859492         0.290703         1.917203
