19
Iteration:  4411charge 0 multiplicity 1
 C        -0.050135        -0.053712         0.067426
 C         1.453258         0.134499        -0.063449
 C         2.182501         1.093736        -0.937395
 C         3.647313         0.978391        -0.329198
 C         4.329746        -0.367729        -0.869970
 C         3.342312        -1.170825         0.083989
 O         1.978997        -1.211150        -0.326737
 C         3.339401         0.190225         0.959546
 O         1.924890         0.407075         1.267380
 H        -0.258992        -0.753139         0.923681
 H        -0.532308         0.822026         0.521968
 H        -0.553036        -0.396147        -0.841883
 H         2.292923         0.940069        -2.035492
 H         1.841705         2.201193        -0.788689
 H         4.206569         1.931899        -0.271277
 H         4.289636        -0.589794        -2.067124
 H         5.352040        -0.405368        -0.441624
 H         3.739514        -2.163958         0.260665
 H         3.944254         0.450525         1.837995
