19
Iteration:  2978
 C        -0.035763        -0.074136        -0.147221
 C         1.465362         0.002358        -0.062150
 C         2.262089         1.239645        -0.795540
 C         3.640868         0.980664        -0.411998
 C         4.109175        -0.410898        -0.964152
 C         3.388196        -1.140496         0.100970
 O         2.053806        -1.208841        -0.243456
 C         3.347364         0.194369         1.049384
 O         1.956917         0.407154         1.331804
 H        -0.303121        -0.842192         0.659234
 H        -0.525637         0.855161         0.072709
 H        -0.336774        -0.409545        -1.155995
 H         2.079144         1.258531        -1.893599
 H         1.700559         2.242215        -0.416812
 H         4.297720         1.840555        -0.501106
 H         3.694696        -0.717415        -1.927635
 H         5.262296        -0.368909        -0.893913
 H         3.596361        -2.093053         0.502627
 H         3.960888         0.389912         1.996120
