19
Iteration:   795charge 0 multiplicity 1
 C        -0.156043         0.061980        -0.119812
 C         1.444744         0.046058         0.084714
 C         2.193694         1.005402        -0.926839
 C         3.689497         1.015216        -0.313189
 C         4.251862        -0.373707        -0.972083
 C         3.395650        -1.043062         0.106103
 O         2.038660        -1.327529        -0.229874
 C         3.319910         0.282808         0.916032
 O         1.988404         0.340911         1.338733
 H        -0.675011        -0.420535         0.745409
 H        -0.607151         1.188311        -0.156769
 H        -0.468314        -0.411219        -1.042106
 H         2.121136         0.800683        -1.943628
 H         1.897546         2.076352        -0.628924
 H         4.211973         1.922990        -0.368330
 H         3.915601        -0.497674        -2.016366
 H         5.291574        -0.539946        -0.852901
 H         3.911764        -1.896785         0.619652
 H         4.020128         0.447364         1.692914
