19
Iteration:  3504charge 0 multiplicity 1
 C        -0.082928        -0.031657        -0.122401
 C         1.451420         0.048375         0.016563
 C         2.238944         1.154356        -0.969988
 C         3.606404         0.973342        -0.337086
 C         4.159077        -0.350877        -0.964146
 C         3.377884        -1.122569         0.087468
 O         2.016253        -1.287039        -0.226831
 C         3.307391         0.224119         1.029829
 O         2.027667         0.425247         1.360139
 H        -0.415534        -0.756340         0.701755
 H        -0.328591         1.072940        -0.009566
 H        -0.182893        -0.547101        -1.111015
 H         2.176214         0.833567        -1.974043
 H         1.829302         2.076974        -0.678584
 H         4.222314         1.927345        -0.243977
 H         3.747280        -0.655699        -1.965671
 H         5.347002        -0.407863        -0.895345
 H         3.878863        -2.062299         0.371833
 H         4.044408         0.393490         1.878772
