19
Iteration:   673
 C        -0.115999         0.059695        -0.090821
 C         1.380092        -0.028065         0.009394
 C         2.176962         1.028551        -0.863814
 C         3.599915         0.993813        -0.374015
 C         4.333174        -0.414472        -0.956145
 C         3.404577        -1.112260         0.071034
 O         2.062688        -1.252401        -0.269962
 C         3.329784         0.290791         0.887487
 O         1.956416         0.399649         1.417356
 H        -0.586729        -0.646437         0.765945
 H        -0.132648         1.069771         0.186291
 H        -0.640646         0.126699        -1.071322
 H         2.149459         0.730322        -1.949640
 H         1.620595         1.973057        -0.716771
 H         4.146568         1.984251        -0.405082
 H         4.174176        -0.602250        -1.996953
 H         5.405011        -0.543420        -0.681833
 H         3.892660        -1.870019         0.672098
 H         4.084276         0.427525         1.728497
