19
Iteration:  3291charge 0 multiplicity 1
 C        -0.094284         0.144893         0.013778
 C         1.396990         0.053166         0.053156
 C         2.170051         1.073973        -0.939381
 C         3.577928         0.918349        -0.338159
 C         4.283595        -0.302898        -0.860902
 C         3.497739        -1.095204         0.062716
 O         2.073779        -1.279627        -0.367693
 C         3.303840         0.195418         0.948665
 O         1.941878         0.326537         1.308554
 H        -0.643331        -0.570146         0.666300
 H        -0.392875         1.132367         0.120846
 H        -0.323057        -0.233201        -0.945909
 H         1.969669         0.746390        -2.016947
 H         1.718999         2.050137        -0.576153
 H         4.197064         1.843206        -0.344029
 H         4.070306        -0.663146        -1.912519
 H         5.275076        -0.283834        -0.495417
 H         3.813334        -2.104745         0.550570
 H         4.156310         0.303673         1.703361
