19
Iteration:  4423charge 0 multiplicity 1
 C        -0.031373        -0.040415         0.100774
 C         1.437875         0.081378        -0.000998
 C         2.276457         1.174813        -0.954035
 C         3.653634         0.950533        -0.347194
 C         4.245051        -0.343031        -0.913973
 C         3.365530        -1.100508         0.086321
 O         2.043672        -1.247397        -0.341850
 C         3.264679         0.160585         0.988943
 O         1.907623         0.420499         1.251595
 H        -0.196895        -0.833795         0.879812
 H        -0.413722         0.979075         0.201975
 H        -0.417998        -0.421117        -0.909802
 H         1.981075         0.674015        -1.943517
 H         1.679719         2.179651        -0.841000
 H         4.317399         1.861423        -0.241493
 H         4.234950        -0.473248        -2.110406
 H         5.293651        -0.581682        -0.614733
 H         3.587395        -1.985789         0.736718
 H         3.892032         0.062412         1.848571
