19
Iteration:  3578charge 0 multiplicity 1
 C        -0.066284        -0.052751         0.115391
 C         1.439291         0.080005        -0.105420
 C         2.176465         1.075346        -0.979394
 C         3.585204         0.917039        -0.350820
 C         4.283955        -0.420993        -0.897284
 C         3.439425        -1.117593         0.136731
 O         2.055339        -1.154189        -0.361750
 C         3.325204         0.246312         0.972704
 O         1.905671         0.428187         1.268325
 H        -0.175116        -0.878629         0.764158
 H        -0.350690         0.840893         0.675574
 H        -0.442773        -0.316907        -0.837297
 H         2.295883         0.989854        -2.087539
 H         1.888999         2.060008        -0.454145
 H         4.182208         1.831050        -0.145551
 H         4.077852        -0.655478        -1.904262
 H         5.311595        -0.493116        -0.704253
 H         3.475686        -2.126946         0.626090
 H         3.880450         0.467458         1.933129
