19
Iteration:    67
 C        -0.026735         0.036210         0.039836
 C         1.482627         0.032966         0.008858
 C         2.155248         1.091735        -0.944671
 C         3.639249         1.002213        -0.488361
 C         4.218001        -0.363084        -0.960376
 C         3.388820        -1.105266         0.176224
 O         2.036690        -1.350100        -0.227855
 C         3.290824         0.290881         0.993703
 O         1.961214         0.409138         1.273516
 H        -0.409193        -0.579144         0.915338
 H        -0.464345         0.954933         0.003893
 H        -0.300342        -0.541167        -0.888581
 H         2.005576         0.766794        -1.961310
 H         1.719346         2.079303        -0.816089
 H         4.303814         1.822053        -0.597114
 H         4.095427        -0.710217        -2.009048
 H         5.276007        -0.384212        -0.807070
 H         3.868205        -1.844775         0.695741
 H         3.883739         0.488975         1.917106
