19
Iteration:  3865charge 0 multiplicity 1
 C        -0.042608         0.017965         0.061400
 C         1.416255         0.094103         0.014432
 C         2.176973         1.031950        -0.930018
 C         3.563806         0.949273        -0.351228
 C         4.330340        -0.292178        -0.903034
 C         3.420152        -1.144184         0.065462
 O         1.996777        -1.199345        -0.358212
 C         3.295801         0.178311         0.991568
 O         1.993129         0.395377         1.286083
 H        -0.273475        -0.613006         0.877293
 H        -0.413632         0.993946         0.310193
 H        -0.295491        -0.428715        -0.911496
 H         2.050975         0.576494        -1.944743
 H         1.611054         2.112460        -0.878401
 H         4.032093         1.961726        -0.333788
 H         4.412483        -0.382066        -1.964713
 H         5.344947        -0.587815        -0.468688
 H         3.684908        -2.183481         0.219796
 H         3.800160         0.220765         1.947080
