19
Iteration:  2644charge 0 multiplicity 1
 C        -0.050400        -0.068628         0.082660
 C         1.498252         0.143515         0.013221
 C         2.094391         1.161270        -1.003274
 C         3.544159         0.938156        -0.459154
 C         4.348401        -0.402479        -0.885056
 C         3.387720        -1.156620         0.248709
 O         2.076930        -1.187265        -0.387955
 C         3.326856         0.189893         0.953271
 O         1.917551         0.405263         1.311445
 H        -0.224179        -0.991729         0.607774
 H        -0.465056         0.675680         0.642355
 H        -0.458050         0.091674        -0.885067
 H         2.031885         1.029518        -2.098675
 H         1.945191         2.291999        -0.926381
 H         4.158457         1.788135        -0.507699
 H         4.234599        -0.945932        -1.913072
 H         5.379078        -0.381738        -0.584336
 H         3.521316        -2.217680         0.651753
 H         3.893282         0.340801         1.914011
