19
Iteration:    87
 C        -0.014526         0.051502        -0.184951
 C         1.475328        -0.002325        -0.002620
 C         2.142076         0.965283        -0.955515
 C         3.529938         1.001443        -0.446027
 C         4.120169        -0.337648        -0.948925
 C         3.455575        -1.072207         0.171210
 O         2.014492        -1.216671        -0.094978
 C         3.414757         0.287502         0.932186
 O         2.022654         0.323912         1.393845
 H        -0.445822        -0.574369         0.628542
 H        -0.268007         1.095718         0.015086
 H        -0.389377        -0.225619        -1.197451
 H         2.035832         0.794422        -2.036211
 H         1.655969         1.945128        -0.810416
 H         4.057757         1.945575        -0.434059
 H         3.956335        -0.602945        -1.965922
 H         5.199786        -0.515854        -0.928293
 H         3.698171        -1.987864         0.567826
 H         4.149197         0.510711         1.690984
