19
Iteration:  4766charge 0 multiplicity 1
 C        -0.104694        -0.075263        -0.139439
 C         1.434298         0.113986        -0.091053
 C         2.229309         1.132713        -0.791642
 C         3.619793         0.998533        -0.370690
 C         4.250004        -0.358619        -0.983568
 C         3.385526        -1.114676         0.134656
 O         1.986825        -1.235924        -0.239176
 C         3.358687         0.195073         0.980339
 O         1.991366         0.390831         1.341283
 H        -0.311624        -0.903344         0.569428
 H        -0.385417         0.836483         0.388712
 H        -0.527007        -0.334354        -1.061852
 H         1.846914         0.916980        -1.824628
 H         1.885349         2.104690        -0.480968
 H         4.300286         1.844920        -0.341506
 H         3.969797        -0.582495        -1.966618
 H         5.409021        -0.478153        -1.003474
 H         3.737485        -2.074906         0.520462
 H         4.069747         0.319976         1.789393
