19
Iteration:  4756
 C        -0.106092        -0.059609        -0.135936
 C         1.426921         0.037973        -0.025067
 C         2.140196         1.177563        -0.819846
 C         3.675565         0.948790        -0.420507
 C         4.165405        -0.347641        -0.931219
 C         3.423350        -1.101294         0.102836
 O         1.977472        -1.205060        -0.254378
 C         3.403206         0.187954         1.028930
 O         2.084367         0.390645         1.311618
 H        -0.528857        -0.950031         0.410318
 H        -0.836585         0.707892         0.158726
 H        -0.289449        -0.168740        -1.165560
 H         2.140015         1.026152        -1.914078
 H         1.665611         2.109991        -0.531395
 H         4.141184         1.922367        -0.317122
 H         3.911475        -0.584156        -1.947736
 H         5.310854        -0.572893        -0.565139
 H         3.666610        -2.061143         0.538456
 H         4.014682         0.305500         1.912702
