19
Iteration:  3035
 C        -0.063004         0.106144         0.104246
 C         1.429917        -0.012070        -0.108507
 C         2.240772         1.074622        -0.952621
 C         3.589633         0.963662        -0.333779
 C         4.333115        -0.297912        -0.812526
 C         3.372678        -1.102231         0.047261
 O         1.990337        -1.297729        -0.359797
 C         3.305923         0.184629         1.002825
 O         1.956585         0.364727         1.268954
 H        -0.323741        -0.832335         0.626671
 H        -0.318013         0.995115         0.680504
 H        -0.562356         0.025376        -0.859647
 H         2.161748         0.796840        -2.020844
 H         1.827764         2.167253        -0.754338
 H         4.058179         1.939993        -0.414587
 H         4.224985        -0.361494        -1.976328
 H         5.425639        -0.397935        -0.575052
 H         3.609554        -1.987655         0.547359
 H         3.956841         0.400988         1.915892
