19
Iteration:  1382
 C        -0.097473         0.089758         0.022380
 C         1.347056         0.115799         0.096899
 C         2.166454         1.022813        -0.915037
 C         3.643133         0.993641        -0.408622
 C         4.396005        -0.287973        -0.901714
 C         3.384029        -1.109683         0.048430
 O         2.014296        -1.287458        -0.342847
 C         3.320411         0.156067         0.939846
 O         1.965691         0.305147         1.306600
 H        -0.554265        -0.245266         0.953067
 H        -0.396660         1.137161         0.050498
 H        -0.473848        -0.387247        -0.902312
 H         2.090392         0.738880        -1.950637
 H         1.626312         2.080460        -0.791171
 H         4.177527         1.988535        -0.281117
 H         4.519945        -0.483936        -2.006199
 H         5.291424        -0.221339        -0.356959
 H         3.771073        -1.966698         0.573909
 H         4.072738         0.130682         1.785090
