19
Iteration:  2726charge 0 multiplicity 1
 C        -0.042411         0.039425        -0.057217
 C         1.429639         0.057532         0.037983
 C         2.108075         1.111710        -0.853612
 C         3.665382         0.966760        -0.473889
 C         4.260519        -0.360157        -0.919749
 C         3.409175        -1.104376         0.212773
 O         2.044767        -1.277623        -0.339465
 C         3.300862         0.243370         0.970878
 O         1.979274         0.362157         1.329000
 H        -0.592777        -0.519223         0.718701
 H        -0.593553         1.054369        -0.263737
 H        -0.486361        -0.517551        -0.924013
 H         2.001571         0.916753        -1.911696
 H         1.969597         2.110086        -0.572879
 H         4.343474         1.902026        -0.378377
 H         3.879180        -0.806850        -1.812523
 H         5.399356        -0.499456        -0.849367
 H         3.763706        -2.044405         0.550347
 H         4.079227         0.426111         1.691595
