19
Iteration:  3261
 C        -0.031131        -0.026028        -0.152667
 C         1.434549         0.042534         0.021780
 C         2.151860         1.145503        -0.841434
 C         3.647897         0.999018        -0.362566
 C         4.218204        -0.352048        -0.943105
 C         3.423403        -1.076200         0.104562
 O         1.949547        -1.205585        -0.229151
 C         3.348230         0.192015         0.955237
 O         2.009216         0.324575         1.343502
 H        -0.336184        -1.031984         0.261260
 H        -0.549919         0.893729         0.196842
 H        -0.258981         0.062804        -1.244634
 H         1.993614         0.970227        -1.886731
 H         1.739996         2.105273        -0.653728
 H         4.378259         1.809705        -0.401610
 H         3.938780        -0.695786        -1.959140
 H         5.367202        -0.420649        -0.746698
 H         3.626565        -2.069181         0.574334
 H         4.164225         0.201980         1.739881
