19
Iteration:  4527charge 0 multiplicity 1
 C        -0.039885        -0.033048         0.045877
 C         1.423507         0.082930        -0.108949
 C         2.192802         1.144682        -0.941642
 C         3.680001         0.933221        -0.367077
 C         4.290935        -0.332974        -0.899231
 C         3.373781        -1.143272         0.166375
 O         2.026655        -1.281574        -0.389739
 C         3.243058         0.258368         0.999328
 O         1.966611         0.407739         1.352544
 H        -0.222251        -0.827924         0.855479
 H        -0.261618         0.928910         0.619245
 H        -0.648078        -0.261292        -0.899268
 H         2.115635         0.972561        -2.072947
 H         1.600575         2.093220        -0.746592
 H         4.290673         1.796258        -0.483751
 H         4.119558        -0.490569        -1.947424
 H         5.350276        -0.422756        -0.749062
 H         3.585615        -2.223321         0.455019
 H         3.928834         0.324527         1.909580
