19
Iteration:    47charge 0 multiplicity 1
 C        -0.171223        -0.103807         0.123373
 C         1.392473         0.091400        -0.059717
 C         2.134796         1.069545        -0.942024
 C         3.593841         0.853507        -0.377746
 C         4.361820        -0.414845        -0.886045
 C         3.440665        -1.124566         0.155120
 O         2.088956        -1.175009        -0.298131
 C         3.373220         0.207139         0.915202
 O         1.935208         0.574395         1.223100
 H        -0.381422        -0.553566         1.163578
 H        -0.531582         0.831540         0.156181
 H        -0.726487        -0.703927        -0.656679
 H         2.128295         0.922339        -1.980364
 H         1.931835         2.088526        -0.640287
 H         4.020422         1.805765        -0.461620
 H         3.993545        -0.782972        -1.885175
 H         5.386352        -0.446014        -0.649329
 H         3.865078        -2.102140         0.366082
 H         4.142783         0.443723         1.729516
