19
Iteration:  3337
 C        -0.051426        -0.069529         0.054154
 C         1.397921         0.128460         0.009734
 C         2.193311         1.149520        -0.872761
 C         3.629589         0.987522        -0.339819
 C         4.296525        -0.355989        -0.901285
 C         3.371105        -1.165949         0.102302
 O         2.020305        -1.248883        -0.370847
 C         3.287938         0.158629         0.925815
 O         1.975347         0.450932         1.257533
 H        -0.314376        -0.656967         0.921009
 H        -0.542997         0.889136        -0.012021
 H        -0.359289        -0.705274        -0.799078
 H         2.311020         0.805643        -1.871986
 H         2.003709         2.170793        -0.819626
 H         4.175142         1.895840        -0.121692
 H         4.034930        -0.454823        -1.940946
 H         5.373160        -0.459087        -0.577562
 H         3.672666        -2.166611         0.566911
 H         3.934914         0.286862         1.809051
