19
Iteration:  2409
 C         0.019850        -0.127119        -0.104647
 C         1.461833         0.110956         0.067218
 C         2.168180         1.095832        -0.859662
 C         3.665247         1.026589        -0.371618
 C         4.146250        -0.369045        -0.935864
 C         3.372094        -1.147532         0.097309
 O         1.953502        -1.209567        -0.267527
 C         3.364956         0.217075         0.967307
 O         2.007213         0.463031         1.323226
 H        -0.286698        -1.082512         0.444507
 H        -0.807148         0.458071         0.207707
 H        -0.111961        -0.334696        -1.148557
 H         2.138425         0.995763        -1.947392
 H         1.944113         2.164805        -0.760745
 H         4.227606         1.949932        -0.450553
 H         3.872044        -0.588553        -1.954681
 H         5.190156        -0.611592        -0.822654
 H         3.735112        -2.113540         0.452452
 H         4.066610         0.260444         1.858409
