19
Iteration:   510
 C        -0.004259        -0.109197        -0.084997
 C         1.499534         0.088412         0.016521
 C         2.163805         1.176153        -0.864179
 C         3.620700         0.968755        -0.408984
 C         4.133751        -0.452715        -0.939319
 C         3.332394        -1.071523         0.129357
 O         1.991917        -1.225010        -0.306171
 C         3.380170         0.360883         0.995943
 O         2.008933         0.360104         1.371521
 H        -0.270582        -1.229258         0.234809
 H        -0.435646         0.707449         0.294579
 H        -0.417364        -0.033233        -1.146439
 H         2.001417         0.857561        -1.904999
 H         1.841346         2.175036        -0.608857
 H         4.281462         1.793663        -0.549502
 H         3.915448        -0.830625        -1.942991
 H         5.231545        -0.551150        -0.652754
 H         3.857544        -2.088672         0.418332
 H         4.187715         0.341035         1.770228
