19
Iteration:   837charge 0 multiplicity 1
 C         0.002664        -0.067295         0.104293
 C         1.429050         0.121101        -0.039409
 C         2.182259         1.101526        -0.950910
 C         3.576428         0.931341        -0.387024
 C         4.279565        -0.437249        -0.812023
 C         3.324890        -1.134247         0.147309
 O         2.071702        -1.219886        -0.430942
 C         3.333451         0.267527         0.939978
 O         1.965488         0.464900         1.283626
 H        -0.135609        -0.797224         0.937107
 H        -0.583652         0.841743         0.120465
 H        -0.285179        -0.493080        -0.823994
 H         1.977653         0.954852        -2.012206
 H         1.707351         2.121600        -0.691390
 H         4.026190         1.965000        -0.277370
 H         4.165644        -0.623348        -1.889041
 H         5.250311        -0.723487        -0.421955
 H         3.486987        -2.062477         0.689896
 H         3.979988         0.335246         1.775397
