19
Iteration:  3131
 C        -0.028046        -0.057007        -0.105808
 C         1.455101         0.096978        -0.018547
 C         2.237239         1.204320        -0.819841
 C         3.691139         0.918505        -0.344137
 C         4.174105        -0.355953        -1.009264
 C         3.356383        -1.080819         0.165547
 O         2.029883        -1.211503        -0.300558
 C         3.307171         0.243313         1.010176
 O         1.933999         0.306377         1.298698
 H        -0.342638        -0.546459         0.859900
 H        -0.416878         0.924922         0.070315
 H        -0.356060        -0.651684        -0.973492
 H         2.241078         1.026479        -1.877806
 H         1.741478         2.122241        -0.509530
 H         4.370345         1.760420        -0.339584
 H         3.789136        -0.436549        -1.955021
 H         5.234010        -0.630104        -1.075098
 H         3.647631        -2.041993         0.525903
 H         4.073261         0.150859         1.851103
