19
Iteration:  2363
 C        -0.078624         0.119496         0.076078
 C         1.448040         0.073211        -0.019580
 C         2.135390         1.090399        -0.911450
 C         3.603207         0.947747        -0.402978
 C         4.337293        -0.334740        -0.878734
 C         3.365482        -1.077396         0.146669
 O         2.120786        -1.272946        -0.396313
 C         3.246260         0.232452         0.997174
 O         1.974343         0.255528         1.262030
 H        -0.448345        -0.295610         1.077353
 H        -0.494848         1.153525         0.161860
 H        -0.702407        -0.340568        -0.747310
 H         1.917795         0.684954        -1.873822
 H         1.558696         2.007027        -0.783311
 H         4.136432         1.858091        -0.461103
 H         4.159685        -0.772215        -1.892336
 H         5.369778        -0.288156        -0.710554
 H         3.959669        -1.926425         0.597994
 H         4.062668         0.404861         1.772110
