19
Iteration:  2195charge 0 multiplicity 1
 C        -0.086129         0.039283         0.054386
 C         1.461312         0.064894         0.010616
 C         2.203618         1.136890        -0.880067
 C         3.601008         0.975105        -0.471027
 C         4.243170        -0.388061        -0.865248
 C         3.469150        -1.074649         0.134050
 O         2.075896        -1.244238        -0.369617
 C         3.265246         0.217325         0.984203
 O         1.936757         0.320248         1.273632
 H        -0.542668        -0.570708         0.894945
 H        -0.573936         1.003629         0.370939
 H        -0.560265        -0.199392        -0.900693
 H         2.099763         0.734092        -1.916311
 H         1.806977         2.110687        -0.828181
 H         4.280077         1.931168        -0.465951
 H         4.228697        -0.677913        -1.882705
 H         5.321014        -0.553319        -0.656246
 H         3.700781        -2.117375         0.475526
 H         3.872358         0.299419         1.921432
