19
Iteration:  3831charge 0 multiplicity 1
 C        -0.103442        -0.040519         0.028376
 C         1.464143         0.046170        -0.016452
 C         2.136845         1.217456        -0.867806
 C         3.653308         0.963673        -0.405514
 C         4.236703        -0.462760        -0.926196
 C         3.477184        -1.114445         0.153047
 O         2.032062        -1.210189        -0.332805
 C         3.275215         0.244398         0.989224
 O         1.972226         0.332100         1.241849
 H        -0.115837        -0.987564         0.552909
 H        -0.458685         0.891121         0.392930
 H        -0.465221        -0.170133        -0.961539
 H         2.142655         1.139542        -2.002694
 H         2.059743         2.407308        -0.530464
 H         4.160724         1.990708        -0.316453
 H         3.861568        -0.641027        -1.946204
 H         5.322159        -0.489643        -0.653976
 H         3.679732        -2.045692         0.661712
 H         3.786319         0.529030         1.882500
