19
Iteration:  3351
 C        -0.142654        -0.118112        -0.071783
 C         1.469334         0.149729         0.043475
 C         2.146791         1.165837        -0.911504
 C         3.657566         0.923847        -0.335810
 C         4.278660        -0.365231        -0.935933
 C         3.331878        -1.130916         0.156240
 O         2.009204        -1.169469        -0.352372
 C         3.432109         0.167282         0.986127
 O         1.997883         0.412296         1.336232
 H        -0.435913        -0.706301         0.804684
 H        -0.869717         0.820446        -0.128504
 H        -0.292724        -0.599196        -1.092678
 H         1.856605         1.020809        -1.911231
 H         1.596258         2.055033        -0.730022
 H         4.293056         1.813404        -0.423208
 H         4.203843        -0.756400        -1.945510
 H         5.448800        -0.404574        -0.810760
 H         3.626587        -2.034336         0.614044
 H         4.100040         0.228709         1.798713
