19
Iteration:   577
 C         0.047166         0.067257         0.082820
 C         1.464282         0.086995        -0.066747
 C         2.152132         1.041655        -1.006895
 C         3.590232         0.943985        -0.404989
 C         4.285915        -0.269245        -0.817408
 C         3.424754        -1.108387         0.188856
 O         1.965488        -1.254139        -0.348996
 C         3.293001         0.243145         0.897232
 O         1.960416         0.279934         1.307456
 H        -0.170932        -0.643515         0.965840
 H        -0.265728         1.055009         0.263449
 H        -0.416098        -0.217649        -0.861515
 H         1.976144         0.830509        -2.027413
 H         1.918411         2.080880        -0.733409
 H         3.898958         1.919434        -0.378562
 H         4.045870        -0.595075        -1.850196
 H         5.382598        -0.290071        -0.622851
 H         3.363887        -2.094602         0.768188
 H         4.083811         0.299943         1.745644
