19
Iteration:  1738charge 0 multiplicity 1
 C        -0.049650         0.052657        -0.167535
 C         1.480752         0.071771         0.055407
 C         2.117222         1.119335        -0.842585
 C         3.602369         1.002229        -0.478491
 C         4.231073        -0.357790        -1.003985
 C         3.375988        -1.112545         0.125433
 O         2.034247        -1.307686        -0.158571
 C         3.364502         0.216029         0.925387
 O         1.983595         0.350925         1.405522
 H        -0.673018        -0.480564         0.523518
 H        -0.385356         1.084658        -0.283867
 H        -0.081952        -0.444122        -1.168947
 H         1.988755         0.887013        -1.978217
 H         1.718374         2.145554        -0.669808
 H         4.261770         1.774690        -0.426100
 H         4.014660        -0.735400        -1.963943
 H         5.261361        -0.650480        -0.688300
 H         4.001242        -1.859735         0.573346
 H         3.863061         0.509831         1.861269
