19
Iteration:  3581
 C        -0.080932        -0.061719         0.122990
 C         1.430209         0.061709        -0.124244
 C         2.200097         1.081931        -0.986012
 C         3.609016         0.931186        -0.357103
 C         4.284740        -0.427094        -0.878530
 C         3.425878        -1.124925         0.130086
 O         2.023538        -1.135628        -0.358345
 C         3.341630         0.233874         0.979163
 O         1.892237         0.429250         1.282447
 H        -0.152871        -0.960302         0.846168
 H        -0.374026         0.805110         0.718374
 H        -0.396683        -0.304596        -0.891985
 H         2.250107         1.030863        -2.050195
 H         1.848777         1.996537        -0.594415
 H         4.192270         1.884361        -0.188688
 H         4.165663        -0.591796        -1.940249
 H         5.411190        -0.505083        -0.708874
 H         3.609317        -2.076142         0.608195
 H         3.982145         0.513868         1.855577
