19
Iteration:  1553
 C        -0.051338        -0.042077         0.028931
 C         1.418750         0.125510         0.003717
 C         2.140261         1.097071        -0.881795
 C         3.693580         0.974897        -0.445873
 C         4.348190        -0.388235        -0.886540
 C         3.312523        -1.106384         0.174149
 O         1.980882        -1.210194        -0.403939
 C         3.364588         0.195059         0.970174
 O         1.976606         0.379125         1.346967
 H        -0.567731        -0.628164         0.734877
 H        -0.682144         0.921023         0.019398
 H        -0.394356        -0.598569        -0.910169
 H         1.943077         0.886936        -1.923097
 H         1.951254         2.076554        -0.734601
 H         4.228771         1.924181        -0.509770
 H         4.267659        -0.589103        -1.932803
 H         5.427978        -0.348827        -0.689215
 H         3.512316        -2.163233         0.516697
 H         3.997270         0.374238         1.871640
