19
Iteration:  2889charge 0 multiplicity 1
 C        -0.119065        -0.033998         0.086594
 C         1.452234         0.081794        -0.066138
 C         2.173506         1.156449        -0.896526
 C         3.657488         0.916399        -0.353603
 C         4.316934        -0.407735        -0.904653
 C         3.396541        -1.073807         0.110646
 O         2.044305        -1.247410        -0.387462
 C         3.285822         0.221644         1.040927
 O         1.926992         0.421336         1.228214
 H        -0.107622        -0.814980         0.822859
 H        -0.519804         0.954894         0.406771
 H        -0.731275        -0.424563        -0.740138
 H         2.058402         1.027354        -2.003183
 H         1.688930         2.166283        -0.525285
 H         4.371527         1.756502        -0.381299
 H         4.278184        -0.807398        -1.906081
 H         5.431516        -0.459265        -0.513700
 H         3.707085        -2.031046         0.516802
 H         4.039802         0.349510         1.740441
