19
Iteration:    54charge 0 multiplicity 1
 C        -0.145110        -0.063531         0.084364
 C         1.382639         0.083814        -0.024821
 C         2.175369         1.077113        -0.950545
 C         3.605215         0.878358        -0.409649
 C         4.307739        -0.395682        -0.947633
 C         3.486448        -1.140894         0.164218
 O         2.096322        -1.285506        -0.288914
 C         3.331391         0.246301         0.927100
 O         1.931346         0.568158         1.273642
 H        -0.336227        -0.485586         1.064397
 H        -0.568120         0.990700         0.150725
 H        -0.669667        -0.632966        -0.686439
 H         2.093928         0.965863        -2.057498
 H         1.828146         2.065976        -0.591743
 H         4.112618         1.860837        -0.341488
 H         3.987071        -0.636353        -1.955520
 H         5.373813        -0.384614        -0.636601
 H         3.721974        -2.123174         0.548286
 H         4.013972         0.459263         1.713590
