19
Iteration:  3656
 C        -0.066742         0.085054        -0.142688
 C         1.491184         0.045704         0.033312
 C         2.162559         1.113666        -0.819333
 C         3.609793         0.944399        -0.387513
 C         4.148523        -0.343571        -0.964647
 C         3.458364        -1.080956         0.182989
 O         2.091664        -1.338463        -0.204702
 C         3.350817         0.297169         0.933000
 O         1.925228         0.302247         1.263853
 H        -0.406685        -0.620087         0.649258
 H        -0.366398         1.062524         0.102572
 H        -0.154173        -0.144861        -1.141755
 H         1.923497         0.986293        -1.899729
 H         1.744382         2.236630        -0.656599
 H         4.292655         1.842488        -0.469378
 H         3.727370        -0.633451        -1.839105
 H         5.177902        -0.606644        -1.027010
 H         3.763847        -2.059150         0.543486
 H         3.897416         0.597421         1.858947
