19
Iteration:  3312
 C        -0.066993         0.075445         0.068554
 C         1.401937        -0.002253        -0.094456
 C         2.167113         1.088077        -0.940326
 C         3.659412         1.048564        -0.373739
 C         4.348455        -0.299034        -0.932970
 C         3.361995        -1.123001         0.143325
 O         2.025209        -1.249702        -0.332896
 C         3.334540         0.197768         1.050589
 O         1.920102         0.285166         1.243645
 H        -0.101617        -0.497198         1.015765
 H        -0.285207         1.097984         0.134394
 H        -0.756217        -0.405748        -0.576403
 H         2.250186         0.820904        -2.098899
 H         1.883757         2.244941        -0.779025
 H         4.202469         2.018439        -0.229987
 H         4.182573        -0.535310        -2.033951
 H         5.277653        -0.387338        -0.510233
 H         3.484080        -2.217635         0.531963
 H         3.979167         0.288765         1.999632
