19
Iteration:  2141charge 0 multiplicity 1
 C        -0.033301        -0.080610        -0.145218
 C         1.445250         0.116277         0.098380
 C         2.218213         1.169584        -0.889440
 C         3.668889         0.961265        -0.361627
 C         4.160097        -0.356920        -1.014819
 C         3.375084        -1.098178         0.130587
 O         1.991723        -1.252893        -0.236039
 C         3.406734         0.245562         0.984804
 O         1.967859         0.385359         1.339233
 H        -0.613704        -0.781866         0.568442
 H        -0.676717         0.822724        -0.207466
 H        -0.129242        -0.746824        -0.999581
 H         2.117994         1.031940        -1.983761
 H         1.699863         2.058735        -0.732423
 H         4.391471         1.866095        -0.250523
 H         3.834098        -0.410835        -2.033992
 H         5.194449        -0.693885        -0.909342
 H         3.574294        -2.135083         0.481161
 H         4.086641         0.217658         1.875768
