19
Iteration:   245
 C        -0.121989        -0.169498        -0.150637
 C         1.434940         0.053338        -0.051157
 C         2.180269         1.148757        -0.783026
 C         3.620081         0.950160        -0.405177
 C         4.107384        -0.413905        -0.977281
 C         3.405781        -1.093321         0.216436
 O         2.074011        -1.235003        -0.236957
 C         3.406755         0.255448         1.002314
 O         2.045549         0.498583         1.292062
 H        -0.481652        -0.662437         0.682355
 H        -0.628463         0.909033        -0.124551
 H        -0.535664        -0.538897        -1.045922
 H         1.956536         1.239664        -1.860271
 H         1.888182         2.165730        -0.456286
 H         4.305318         1.827550        -0.711974
 H         3.728082        -0.690831        -1.995576
 H         5.204504        -0.649360        -0.949166
 H         3.856120        -2.046766         0.638599
 H         4.122271         0.286836         1.812843
