19
Iteration:  4015
 C        -0.070941         0.121246         0.096229
 C         1.451865         0.038747         0.029173
 C         2.155163         1.102616        -0.895345
 C         3.623090         0.982309        -0.434039
 C         4.301070        -0.334540        -0.855041
 C         3.454051        -1.139474         0.106183
 O         2.060421        -1.305891        -0.408126
 C         3.301040         0.205757         0.973492
 O         1.884166         0.323753         1.291067
 H        -0.271157        -0.813399         0.728874
 H        -0.333788         1.181616         0.405195
 H        -0.439357         0.055298        -1.001601
 H         2.001230         1.040487        -2.014862
 H         1.649175         2.051584        -0.728374
 H         4.041058         2.073427        -0.468003
 H         4.209971        -0.681153        -1.925969
 H         5.380971        -0.258422        -0.799245
 H         3.778489        -2.046882         0.693666
 H         4.005915         0.210751         1.817229
