19
Iteration:   376charge 0 multiplicity 1
 C        -0.033017        -0.178487        -0.124733
 C         1.452151         0.120598         0.053278
 C         2.179218         1.190353        -0.866538
 C         3.649041         0.901026        -0.382608
 C         4.196034        -0.363241        -1.009113
 C         3.403658        -1.155844         0.085906
 O         2.011785        -1.143705        -0.246493
 C         3.367871         0.208603         1.044650
 O         1.945992         0.441201         1.358611
 H        -0.326180        -0.974622         0.556887
 H        -0.676811         0.747269         0.217424
 H        -0.269496        -0.537912        -1.127819
 H         2.092791         1.034030        -1.971724
 H         1.964843         2.225811        -0.553400
 H         4.309536         1.822569        -0.620894
 H         3.813808        -0.693177        -1.986331
 H         5.304260        -0.547948        -0.975697
 H         3.622003        -2.194482         0.309480
 H         3.982962         0.515551         1.840468
