19
Iteration:  4920
 C        -0.028410         0.044573        -0.056312
 C         1.408238         0.130461         0.081064
 C         2.118574         1.062915        -0.873630
 C         3.644759         0.957760        -0.398249
 C         4.282547        -0.314702        -0.965236
 C         3.379070        -1.120336         0.084387
 O         2.039119        -1.283953        -0.344481
 C         3.349491         0.172523         0.992195
 O         1.951998         0.373925         1.324715
 H        -0.328156        -0.824593         0.640505
 H        -0.566781         1.008982         0.282963
 H        -0.162865        -0.039400        -1.135243
 H         1.940975         0.807577        -1.965677
 H         1.691885         2.093306        -0.625372
 H         4.165647         1.978107        -0.249423
 H         4.323636        -0.657197        -1.938601
 H         5.230039        -0.481095        -0.427227
 H         3.842871        -2.041892         0.500324
 H         3.874420         0.342851         1.944375
