19
Iteration:  1490
 C        -0.076415         0.030952        -0.047956
 C         1.459659         0.055183        -0.024308
 C         2.158920         1.077046        -0.882319
 C         3.624332         0.923279        -0.413676
 C         4.235731        -0.346319        -0.957768
 C         3.424985        -1.099067         0.117752
 O         2.047787        -1.242232        -0.254145
 C         3.332926         0.244861         1.021637
 O         1.932020         0.351898         1.321014
 H        -0.484645        -0.793100         0.404411
 H        -0.295796         0.999368         0.413091
 H        -0.341982         0.223444        -1.125036
 H         2.122608         0.820291        -1.929241
 H         1.713041         2.134375        -0.708649
 H         4.104519         1.932493        -0.264828
 H         4.052151        -0.472860        -2.071838
 H         5.301690        -0.572734        -0.710358
 H         3.785371        -2.131848         0.452994
 H         4.164283         0.297732         1.796906
