19
Iteration:   563
 C        -0.052734         0.152552         0.090021
 C         1.457845        -0.019306        -0.030125
 C         2.176130         0.999727        -0.937833
 C         3.603634         1.025139        -0.393443
 C         4.323310        -0.299537        -0.911651
 C         3.362009        -1.099123         0.157041
 O         2.064075        -1.283101        -0.324394
 C         3.295594         0.195601         0.985950
 O         1.923229         0.336627         1.238120
 H        -0.493389        -0.658721         0.845237
 H        -0.204835         1.127051         0.499376
 H        -0.681510         0.015638        -0.868253
 H         2.108593         0.682102        -2.043414
 H         1.627379         1.934652        -0.835056
 H         4.212336         1.958463        -0.381286
 H         4.115927        -0.555051        -1.942009
 H         5.419530        -0.390765        -0.734179
 H         3.905696        -1.960876         0.540249
 H         3.925170         0.352201         1.860805
