19
Iteration:   816
 C        -0.044131        -0.015547         0.018840
 C         1.453908         0.058667        -0.059984
 C         2.188995         1.152448        -0.927386
 C         3.621309         0.934060        -0.445766
 C         4.282243        -0.338550        -0.909677
 C         3.456749        -1.113781         0.152171
 O         1.998443        -1.239504        -0.247930
 C         3.321801         0.169732         1.021031
 O         1.917047         0.394638         1.250640
 H        -0.324258        -0.442684         1.003142
 H        -0.430587         1.066341        -0.013656
 H        -0.588077        -0.442989        -0.791317
 H         2.186158         0.879079        -1.966120
 H         1.566909         2.104369        -0.751324
 H         4.317306         1.770351        -0.414930
 H         4.132849        -0.669952        -1.949185
 H         5.326378        -0.282172        -0.639094
 H         3.665283        -2.154511         0.439414
 H         3.851497         0.351204         1.931535
