19
Iteration:   224
 C        -0.002271         0.010057        -0.117127
 C         1.456373        -0.006380         0.043955
 C         2.139706         1.043035        -0.873044
 C         3.613234         0.968021        -0.430934
 C         4.172119        -0.368625        -1.064454
 C         3.475353        -1.079973         0.177870
 O         2.036570        -1.269053        -0.206076
 C         3.342251         0.257691         1.032626
 O         1.943968         0.456221         1.366729
 H        -0.526145        -0.573491         0.577425
 H        -0.466363         1.068214        -0.256267
 H        -0.151198        -0.447242        -1.080797
 H         1.977898         0.860610        -1.961156
 H         1.644881         2.025331        -0.713552
 H         4.319549         1.855441        -0.403336
 H         3.680720        -0.631397        -2.030163
 H         5.277635        -0.518907        -1.251437
 H         3.926512        -2.091535         0.546946
 H         3.989713         0.400017         1.871051
