19
Iteration:   391
 C         0.027393        -0.099419        -0.022552
 C         1.475425         0.095749        -0.072263
 C         2.179140         1.237323        -0.893150
 C         3.660762         1.032300        -0.392234
 C         4.142576        -0.441479        -0.916939
 C         3.341714        -1.097407         0.152269
 O         2.008692        -1.209659        -0.259121
 C         3.358832         0.247667         0.920534
 O         1.972687         0.310832         1.310906
 H        -0.207777        -0.865329         0.824742
 H        -0.463721         0.776924         0.049019
 H        -0.323748        -0.537264        -1.014705
 H         1.983489         1.131640        -1.968143
 H         1.609094         2.097972        -0.564396
 H         4.302061         1.810022        -0.136086
 H         3.894583        -0.524310        -1.976081
 H         5.245173        -0.531128        -0.750321
 H         3.696883        -2.085157         0.693069
 H         4.053955         0.240464         1.788983
