19
Iteration:   285
 C        -0.114657        -0.014534         0.039226
 C         1.428268         0.066712        -0.023386
 C         2.149074         1.028843        -0.946263
 C         3.629772         0.912090        -0.448575
 C         4.276576        -0.350264        -0.886158
 C         3.409981        -1.074259         0.119677
 O         2.015610        -1.189169        -0.354028
 C         3.398997         0.198845         1.015770
 O         1.966383         0.432060         1.335627
 H        -0.295243        -0.786837         0.833933
 H        -0.608352         0.924485         0.355166
 H        -0.518629        -0.355796        -0.930797
 H         2.103038         0.679642        -1.974093
 H         1.708247         2.042087        -0.880494
 H         4.096561         1.886805        -0.484575
 H         4.371688        -0.585367        -1.950956
 H         5.249305        -0.345507        -0.441570
 H         3.669281        -2.008859         0.474207
 H         4.097701         0.283866         1.931781
