19
Iteration:  4288charge 0 multiplicity 1
 C        -0.093875        -0.051542         0.031615
 C         1.415097         0.090591         0.028336
 C         2.112904         1.120665        -0.915785
 C         3.636636         0.980350        -0.389228
 C         4.307358        -0.396285        -0.871253
 C         3.382085        -1.093357         0.185781
 O         2.023385        -1.182566        -0.470487
 C         3.387765         0.232091         0.945827
 O         2.010412         0.334597         1.318793
 H        -0.560567        -0.558061         0.842279
 H        -0.616924         0.919599         0.180575
 H        -0.426262        -0.442090        -0.936911
 H         2.029848         0.840362        -1.974466
 H         1.827613         2.245896        -0.746801
 H         4.288552         1.794617        -0.260068
 H         4.076934        -0.886642        -1.941607
 H         5.251111        -0.595630        -0.358054
 H         3.615286        -2.030468         0.656825
 H         3.923630         0.517887         1.858781
