19
Iteration:  1404
 C        -0.047066         0.087515         0.068254
 C         1.443122        -0.000223        -0.120481
 C         2.171270         1.048105        -0.920358
 C         3.620461         0.956772        -0.382771
 C         4.311886        -0.286007        -0.874546
 C         3.385804        -1.158327         0.094633
 O         1.991668        -1.242577        -0.360461
 C         3.332467         0.262105         1.011963
 O         1.966227         0.324039         1.332262
 H        -0.452805        -0.304410         0.953110
 H        -0.372361         1.105233         0.133817
 H        -0.547339        -0.316851        -0.831516
 H         2.109269         0.812496        -1.968251
 H         1.521991         1.997683        -0.686726
 H         4.246631         1.877811        -0.267988
 H         4.086011        -0.529473        -1.937388
 H         5.313234        -0.289244        -0.543967
 H         3.835534        -2.084463         0.266315
 H         4.040053         0.330012         1.894402
