19
Iteration:   980charge 0 multiplicity 1
 C        -0.061183        -0.088516         0.118938
 C         1.468252         0.152944        -0.005687
 C         2.224006         1.147674        -0.985680
 C         3.637993         0.906952        -0.441295
 C         4.326254        -0.387125        -0.887815
 C         3.408031        -1.119736         0.162013
 O         2.027711        -1.178339        -0.333339
 C         3.259078         0.212004         1.033226
 O         1.883643         0.413489         1.205892
 H        -0.137373        -0.649303         0.942282
 H        -0.856675         0.757359         0.183848
 H        -0.468199        -0.666539        -0.681050
 H         2.049392         0.993510        -1.991533
 H         1.918992         2.292760        -0.791736
 H         4.371865         1.748906        -0.453219
 H         4.183032        -0.723878        -1.983645
 H         5.373814        -0.385922        -0.631800
 H         3.818096        -2.092932         0.598408
 H         3.735953        -0.092984         2.001432
