19
Iteration:  2938
 C        -0.090374         0.059859        -0.069089
 C         1.487142         0.024823        -0.003807
 C         2.185211         1.049945        -0.867065
 C         3.594972         1.009918        -0.345270
 C         4.235586        -0.300009        -0.939459
 C         3.426658        -1.136282         0.084202
 O         1.997014        -1.259950        -0.298302
 C         3.320756         0.194202         1.002687
 O         1.984356         0.390265         1.351025
 H        -0.578048        -0.490127         0.743387
 H        -0.244271         1.109572        -0.238534
 H        -0.531567        -0.444274        -0.936252
 H         2.276023         0.749238        -1.888815
 H         1.772919         1.965697        -0.758341
 H         4.140301         1.952682        -0.476220
 H         4.121245        -0.499336        -2.061558
 H         5.259468        -0.474990        -0.666514
 H         3.857618        -2.155255         0.251549
 H         4.024962         0.199316         1.931343
