19
Iteration:  3087
 C        -0.037864         0.004438        -0.146799
 C         1.437312         0.068616         0.032188
 C         2.154564         1.149234        -0.811696
 C         3.676613         0.953694        -0.403492
 C         4.239471        -0.378570        -0.923662
 C         3.382601        -1.115823         0.114575
 O         1.950972        -1.189076        -0.319799
 C         3.390814         0.186962         0.922256
 O         1.978682         0.334322         1.382182
 H        -0.453041        -0.774105         0.560344
 H        -0.553475         0.877326         0.120860
 H        -0.089533        -0.394222        -1.166450
 H         1.828225         0.880992        -1.810279
 H         1.760672         2.157709        -0.509775
 H         4.199052         1.889210        -0.400027
 H         4.258817        -0.604266        -1.923824
 H         5.302686        -0.432089        -0.601723
 H         3.626687        -2.007953         0.618027
 H         4.043769         0.486924         1.798906
