19
Iteration:  1261charge 0 multiplicity 1
 C        -0.134130         0.073861         0.045338
 C         1.479785         0.083375        -0.026669
 C         2.179400         1.053426        -0.984972
 C         3.634797         0.978826        -0.366774
 C         4.277860        -0.286972        -0.868661
 C         3.466088        -1.118343         0.085598
 O         2.056827        -1.271070        -0.289129
 C         3.292152         0.147542         0.954435
 O         1.957583         0.319312         1.279258
 H        -0.702467        -0.530363         0.688467
 H        -0.186136         1.136609         0.647242
 H        -0.744730         0.293606        -0.864660
 H         2.010916         0.706751        -2.054166
 H         1.702332         2.095400        -0.783509
 H         4.068526         2.024017        -0.373287
 H         4.202394        -0.555119        -1.967827
 H         5.306816        -0.389978        -0.480896
 H         3.759936        -2.137607         0.384031
 H         3.727645         0.223342         1.983101
