19
Iteration:  1592
 C        -0.017966        -0.044229        -0.134953
 C         1.461597         0.090316        -0.020853
 C         2.154155         1.181398        -0.853363
 C         3.679318         0.898035        -0.362967
 C         4.211712        -0.307627        -1.027804
 C         3.399253        -1.159849         0.149808
 O         1.982940        -1.254294        -0.195491
 C         3.344100         0.183265         1.039263
 O         1.964497         0.434568         1.268475
 H        -0.168872        -0.617875         0.844805
 H        -0.370450         0.963817         0.002069
 H        -0.090591        -0.568247        -1.029995
 H         1.932469         1.181101        -2.000401
 H         1.562564         2.122718        -0.365018
 H         4.366912         1.760643        -0.501408
 H         3.601050        -0.752738        -1.883306
 H         5.316673        -0.441149        -1.153294
 H         3.671612        -2.068936         0.639885
 H         3.955378         0.268809         1.895779
