19
Iteration:  1079charge 0 multiplicity 1
 C        -0.049914        -0.102829         0.014227
 C         1.432476         0.100748        -0.073677
 C         2.204052         1.116397        -0.845880
 C         3.665023         0.934477        -0.348845
 C         4.202812        -0.452428        -0.929687
 C         3.443973        -1.141503         0.137459
 O         2.042219        -1.198811        -0.345622
 C         3.314570         0.247255         0.978849
 O         1.923292         0.480614         1.276517
 H        -0.317675        -0.970316         0.476066
 H        -0.522704         0.660814         0.634012
 H        -0.509545        -0.138450        -0.986642
 H         2.146608         1.003885        -1.898707
 H         1.907772         2.176284        -0.590742
 H         4.289496         1.866678        -0.391020
 H         3.943176        -0.620180        -2.005398
 H         5.263040        -0.406788        -0.741022
 H         3.612571        -2.149152         0.571638
 H         3.905632         0.472381         1.928617
