19
Iteration:   933charge 0 multiplicity 1
 C        -0.020093         0.016301        -0.106151
 C         1.435727         0.112673         0.054973
 C         2.151900         1.116184        -0.872412
 C         3.599554         0.975945        -0.514394
 C         4.257133        -0.394222        -0.944976
 C         3.434070        -1.116984         0.185536
 O         2.027549        -1.264012        -0.201898
 C         3.320390         0.156667         1.012995
 O         1.932841         0.386861         1.311704
 H        -0.515461        -0.858071         0.488412
 H        -0.476189         0.939611         0.086204
 H        -0.252366        -0.053746        -1.164602
 H         1.973448         0.782178        -1.954778
 H         1.650285         2.076378        -0.862825
 H         4.220391         1.992289        -0.546936
 H         4.133030        -0.667458        -2.003200
 H         5.381892        -0.324124        -0.745641
 H         4.072335        -1.880019         0.514035
 H         4.021125         0.451702         1.738909
