19
Iteration:  2411charge 0 multiplicity 1
 C         0.014781        -0.137863        -0.116175
 C         1.471789         0.107400         0.095514
 C         2.166020         1.108896        -0.874826
 C         3.670958         1.010256        -0.364803
 C         4.136059        -0.352378        -0.956389
 C         3.356836        -1.154313         0.115314
 O         1.951528        -1.209964        -0.270399
 C         3.378795         0.218624         0.987828
 O         1.998357         0.456702         1.322174
 H        -0.250237        -1.049442         0.401314
 H        -0.809836         0.484287         0.181604
 H        -0.171013        -0.284801        -1.151308
 H         2.174297         0.925186        -2.010199
 H         1.940934         2.222378        -0.733823
 H         4.262397         1.971264        -0.458366
 H         3.877817        -0.649638        -1.952604
 H         5.242221        -0.594788        -0.845127
 H         3.798662        -2.069216         0.432644
 H         4.112723         0.322758         1.761803
