19
Iteration:  2954charge 0 multiplicity 1
 C        -0.026634         0.035961        -0.089690
 C         1.418961         0.060696         0.017273
 C         2.205865         1.143851        -0.896772
 C         3.702935         0.950812        -0.303685
 C         4.187548        -0.291370        -0.997514
 C         3.381049        -1.102280         0.070424
 O         2.019834        -1.357289        -0.191840
 C         3.377474         0.187083         0.962104
 O         1.928788         0.360204         1.268358
 H        -0.386957        -0.531007         0.800404
 H        -0.573459         1.048487        -0.135417
 H        -0.196551        -0.492735        -1.052227
 H         1.975535         1.084404        -2.015903
 H         1.837914         2.283024        -0.556104
 H         4.326296         1.822918        -0.008877
 H         3.778594        -0.352245        -1.956793
 H         5.320918        -0.349615        -0.961612
 H         3.739258        -1.978718         0.683176
 H         3.757301         0.419639         1.918002
