19
Iteration:  1269charge 0 multiplicity 1
 C        -0.118103         0.119291         0.012724
 C         1.447921         0.050672        -0.024167
 C         2.183472         1.041981        -0.934373
 C         3.584662         0.985491        -0.404493
 C         4.292313        -0.310344        -0.912457
 C         3.403705        -1.088145         0.115072
 O         2.024980        -1.252486        -0.294105
 C         3.336652         0.161820         0.974035
 O         1.966577         0.284157         1.311476
 H        -0.505300        -0.714255         0.599546
 H        -0.310118         1.013328         0.644368
 H        -0.571668         0.223831        -0.965284
 H         2.287913         0.699959        -2.059607
 H         1.722331         2.071604        -0.941569
 H         4.178713         1.883999        -0.392837
 H         4.273288        -0.315136        -2.005789
 H         5.363003        -0.329229        -0.494891
 H         3.910287        -2.041000         0.636848
 H         3.938007         0.290426         1.867728
