19
Iteration:  4677charge 0 multiplicity 1
 C        -0.044963         0.005167         0.118460
 C         1.484697         0.115486        -0.079530
 C         2.172463         1.047508        -0.943526
 C         3.634750         0.939972        -0.360350
 C         4.318171        -0.316765        -0.883851
 C         3.422695        -1.095369         0.023195
 O         1.975171        -1.211227        -0.326658
 C         3.325827         0.169119         1.052656
 O         1.910560         0.358967         1.246781
 H        -0.288432        -0.634864         0.902985
 H        -0.464406         1.011108         0.221454
 H        -0.474239        -0.378194        -0.834509
 H         1.950008         0.928409        -2.041285
 H         1.712999         1.984840        -0.688359
 H         4.058194         1.951119        -0.363576
 H         4.335465        -0.598730        -1.951943
 H         5.479497        -0.267781        -0.523102
 H         3.586630        -2.075514         0.489662
 H         3.889694         0.160472         2.020727
