19
Iteration:  3847
 C        -0.056794        -0.039279         0.073808
 C         1.423639         0.067339        -0.050614
 C         2.206455         1.123201        -0.924083
 C         3.649951         0.965739        -0.369339
 C         4.278796        -0.352802        -0.885014
 C         3.350472        -1.094992         0.142571
 O         2.064498        -1.206516        -0.401252
 C         3.349611         0.197116         0.965734
 O         1.915217         0.364515         1.316864
 H        -0.521910        -0.730722         0.822784
 H        -0.575647         0.897116         0.458034
 H        -0.674089        -0.259133        -0.838145
 H         2.047989         0.964778        -1.979766
 H         1.689180         2.072953        -0.744883
 H         4.309531         1.785525        -0.390853
 H         4.133749        -0.729432        -1.913906
 H         5.363751        -0.375224        -0.838742
 H         3.724927        -2.022159         0.645150
 H         4.124836         0.299939         1.774049
