19
Iteration:  3754
 C        -0.056312         0.044623         0.018611
 C         1.506400         0.001863        -0.018452
 C         2.100517         1.104574        -0.935584
 C         3.625722         0.939507        -0.363149
 C         4.294806        -0.348659        -0.906831
 C         3.440200        -1.047984         0.123881
 O         2.007285        -1.339095        -0.329221
 C         3.295410         0.233442         0.988414
 O         1.938992         0.382679         1.301322
 H        -0.456058        -0.660059         0.744230
 H        -0.301926         1.028967         0.288538
 H        -0.469053        -0.057735        -0.929339
 H         2.195764         1.130336        -2.054193
 H         1.696869         2.199440        -0.799677
 H         4.135558         1.934416        -0.244612
 H         4.131557        -0.644948        -1.890326
 H         5.355995        -0.312644        -0.708448
 H         3.776806        -2.011020         0.471852
 H         4.032625         0.385656         1.769208
