19
Iteration:  3199charge 0 multiplicity 1
 C        -0.092906         0.045644         0.022589
 C         1.421632         0.106156         0.001309
 C         2.147562         1.142447        -0.895604
 C         3.638371         0.975303        -0.392704
 C         4.268268        -0.341275        -0.857755
 C         3.377817        -1.161314         0.087774
 O         2.027864        -1.269942        -0.408635
 C         3.352820         0.240787         0.973659
 O         1.983986         0.301424         1.334340
 H        -0.452443        -0.842234         0.496855
 H        -0.502540         0.866190         0.658658
 H        -0.478855        -0.062445        -0.999769
 H         2.142260         0.635371        -1.862078
 H         1.957526         2.286297        -0.836588
 H         4.333457         1.797949        -0.462032
 H         4.261583        -0.612805        -1.864010
 H         5.283751        -0.183188        -0.518005
 H         3.699343        -2.051816         0.515467
 H         3.923517         0.393362         1.869396
