19
Iteration:  1035charge 0 multiplicity 1
 C        -0.067174         0.093501        -0.198928
 C         1.464162         0.042836         0.065921
 C         2.152085         1.061276        -0.884060
 C         3.538460         0.921632        -0.417006
 C         4.299840        -0.296543        -1.009477
 C         3.426769        -1.141668         0.076978
 O         2.043291        -1.236014        -0.132150
 C         3.343900         0.229441         0.993377
 O         1.944385         0.333395         1.357815
 H        -0.540961        -0.495918         0.476769
 H        -0.508827         1.074036         0.126001
 H        -0.381864        -0.265239        -1.165901
 H         2.002839         0.837419        -1.894165
 H         1.755377         2.112063        -0.599912
 H         4.179201         1.817303        -0.347548
 H         4.168092        -0.694421        -2.054647
 H         5.317931        -0.403842        -0.660101
 H         3.946113        -2.090964         0.262847
 H         4.083422         0.449313         1.816495
