19
Iteration:  2951
 C        -0.039453         0.042552        -0.089117
 C         1.413353         0.026937         0.029902
 C         2.225758         1.131114        -0.897151
 C         3.686261         0.959664        -0.315116
 C         4.205409        -0.274525        -0.971594
 C         3.366653        -1.123692         0.048895
 O         2.033933        -1.342384        -0.214375
 C         3.356007         0.192212         0.987144
 O         1.939039         0.375627         1.278864
 H        -0.481327        -0.374334         0.808167
 H        -0.594092         1.058767        -0.076825
 H        -0.183800        -0.473205        -1.045825
 H         2.003118         1.013429        -1.980461
 H         1.792719         2.110416        -0.641404
 H         4.312553         1.877365        -0.119012
 H         3.813426        -0.379996        -2.006060
 H         5.235441        -0.307669        -0.934095
 H         3.724301        -2.091483         0.642664
 H         3.965717         0.402763         1.891161
