19
Iteration:  2687charge 0 multiplicity 1
 C        -0.045839         0.029325        -0.114637
 C         1.451010         0.038270         0.005757
 C         2.231567         1.115113        -0.934970
 C         3.647667         0.996888        -0.368462
 C         4.212093        -0.296163        -0.964739
 C         3.434984        -1.128377         0.108686
 O         1.971291        -1.340520        -0.138882
 C         3.318207         0.200548         0.937392
 O         1.977752         0.432173         1.332356
 H        -0.517667        -0.787683         0.450212
 H        -0.420617         0.907515         0.285544
 H        -0.100125        -0.300804        -1.147014
 H         1.925350         0.812839        -1.974674
 H         1.579787         2.023488        -0.657757
 H         4.226592         1.910942        -0.407146
 H         3.782274        -0.445488        -2.016371
 H         5.261287        -0.464673        -1.015379
 H         3.857159        -2.069070         0.591603
 H         3.948429         0.305862         1.858691
