19
Iteration:  3106
 C        -0.054865        -0.118027        -0.189738
 C         1.408154         0.151967         0.079616
 C         2.133740         1.267081        -0.790233
 C         3.605032         0.916433        -0.391748
 C         4.228082        -0.436209        -0.941660
 C         3.368527        -1.149614         0.082379
 O         2.037976        -1.198692        -0.290401
 C         3.345979         0.188877         1.003580
 O         2.046668         0.433665         1.345787
 H        -0.594058        -0.804875         0.549119
 H        -0.530594         0.889955        -0.116603
 H        -0.010917        -0.544633        -1.225036
 H         2.032621         1.294931        -1.873354
 H         1.770736         2.115082        -0.344043
 H         4.154160         1.906128        -0.465893
 H         4.090765        -0.848174        -1.976531
 H         5.324523        -0.512464        -0.718265
 H         3.691289        -2.255091         0.317324
 H         4.023927        -0.013122         1.830259
