19
Iteration:  4882charge 0 multiplicity 1
 C        -0.073201        -0.010195        -0.081899
 C         1.494689         0.103088        -0.022618
 C         2.208458         1.167678        -0.815683
 C         3.705621         0.956796        -0.353937
 C         4.149948        -0.407846        -1.010072
 C         3.433987        -1.101714         0.122388
 O         2.068655        -1.238355        -0.275574
 C         3.339581         0.194751         1.039823
 O         1.877875         0.376341         1.317978
 H        -0.419549        -0.853852         0.482508
 H        -0.704901         0.821259         0.185721
 H        -0.310840        -0.472249        -1.075278
 H         1.896753         0.983072        -1.854398
 H         1.821170         2.107407        -0.506892
 H         4.245346         1.859956        -0.568248
 H         3.958151        -0.528198        -2.175538
 H         5.220342        -0.406107        -0.925011
 H         3.740399        -2.091759         0.449978
 H         4.023545         0.370015         1.862710
