19
Iteration:  4558
 C        -0.098323         0.003525         0.028516
 C         1.397638         0.137623         0.002394
 C         2.120269         1.124906        -0.919284
 C         3.623736         0.932181        -0.452872
 C         4.371696        -0.319856        -0.857748
 C         3.404169        -1.176306         0.126117
 O         2.032945        -1.206320        -0.328556
 C         3.294027         0.160944         0.961291
 O         1.979492         0.359899         1.320074
 H        -0.468149        -0.890627         0.473467
 H        -0.552660         0.866536         0.553886
 H        -0.451495        -0.136644        -1.022275
 H         1.846862         0.932440        -2.012728
 H         1.757144         2.120593        -0.899458
 H         4.272020         1.798572        -0.436453
 H         4.450123        -0.585372        -1.854955
 H         5.483416        -0.233995        -0.616461
 H         3.809742        -2.143550         0.553011
 H         4.015468         0.285247         1.821151
