19
Iteration:  4576
 C        -0.047325         0.015725        -0.095572
 C         1.451109         0.039288         0.012136
 C         2.181940         1.078067        -0.934982
 C         3.545529         0.939557        -0.340139
 C         4.221723        -0.373414        -0.950232
 C         3.439493        -1.062939         0.094746
 O         2.019628        -1.218954        -0.310730
 C         3.364629         0.224035         0.990541
 O         1.975837         0.379416         1.405258
 H        -0.353826        -0.842919         0.512420
 H        -0.350346         0.860187         0.496862
 H        -0.417293        -0.112010        -1.102570
 H         2.178842         0.929801        -2.018650
 H         1.699466         2.075695        -0.745779
 H         4.032543         1.953639        -0.387773
 H         4.242803        -0.683540        -2.067136
 H         5.280427        -0.572482        -0.585470
 H         3.598549        -2.093692         0.333092
 H         3.997780         0.421421         1.822681
