19
Iteration:  4515charge 0 multiplicity 1
 C        -0.024356        -0.012739         0.038109
 C         1.483564         0.073387        -0.038808
 C         2.195430         1.152816        -0.964141
 C         3.621689         0.980981        -0.362595
 C         4.218638        -0.340178        -0.936874
 C         3.434592        -1.161494         0.136014
 O         2.025765        -1.220339        -0.307064
 C         3.329369         0.117416         1.011645
 O         1.885009         0.417621         1.286687
 H        -0.224362        -0.887760         0.721758
 H        -0.596006         0.921872         0.328777
 H        -0.535138        -0.281206        -0.974170
 H         2.150571         0.885597        -2.098525
 H         1.951323         2.217381        -0.763491
 H         4.242196         1.854553        -0.234445
 H         3.940547        -0.598724        -1.902295
 H         5.327553        -0.340856        -0.846464
 H         3.833753        -2.118609         0.634825
 H         3.949448         0.296741         1.942394
