19
Iteration:  3196charge 0 multiplicity 1
 C        -0.095999         0.071004         0.033296
 C         1.418992         0.083547         0.025454
 C         2.146872         1.152298        -0.897835
 C         3.658642         0.953206        -0.418357
 C         4.285459        -0.331554        -0.837148
 C         3.392632        -1.144036         0.084059
 O         2.007488        -1.272611        -0.417911
 C         3.357664         0.240163         0.947356
 O         1.974041         0.295687         1.346913
 H        -0.450321        -0.923157         0.536388
 H        -0.570100         0.954380         0.558387
 H        -0.505320        -0.025800        -1.028885
 H         2.153298         0.645184        -1.826493
 H         1.810829         2.192852        -0.919772
 H         4.270544         1.855699        -0.454712
 H         4.291278        -0.662626        -1.865151
 H         5.340702        -0.125648        -0.395009
 H         3.797681        -2.130400         0.402220
 H         3.906191         0.378465         1.967695
