19
Iteration:  2561
 C        -0.046579        -0.006533        -0.158148
 C         1.440549         0.005255         0.053964
 C         2.121764         1.153594        -0.860357
 C         3.617048         0.923245        -0.443761
 C         4.197956        -0.362121        -1.027624
 C         3.486404        -1.058573         0.184518
 O         2.019252        -1.240978        -0.254877
 C         3.310717         0.247344         0.993616
 O         2.040535         0.378405         1.408659
 H        -0.808589        -0.572749         0.524849
 H        -0.396090         1.104163        -0.277874
 H        -0.380369        -0.544051        -1.090702
 H         1.998233         0.842560        -1.886628
 H         1.745662         2.086550        -0.510107
 H         4.393589         1.720518        -0.591120
 H         3.794969        -0.670023        -2.018798
 H         5.301467        -0.526542        -0.987809
 H         3.763805        -2.028095         0.613419
 H         3.823672         0.390227         1.950497
