19
Iteration:  1941charge 0 multiplicity 1
 C        -0.006550        -0.119312         0.150777
 C         1.441650         0.045786        -0.073125
 C         2.114903         1.092885        -0.932850
 C         3.688903         0.972990        -0.397753
 C         4.284808        -0.430945        -0.850863
 C         3.392806        -1.101385         0.163258
 O         2.010227        -1.183726        -0.428943
 C         3.308432         0.242716         0.969588
 O         1.912534         0.438411         1.255471
 H        -0.242951        -0.437630         1.147593
 H        -0.421299         0.975554         0.097584
 H        -0.700416        -0.521178        -0.679093
 H         2.248881         1.030897        -1.975010
 H         1.797687         2.086432        -0.696374
 H         4.290736         2.036394        -0.275215
 H         4.321856        -0.655987        -1.938714
 H         5.332198        -0.529552        -0.607888
 H         3.697558        -2.097755         0.602573
 H         3.930184         0.431087         1.827083
