19
Iteration:  2163charge 0 multiplicity 1
 C        -0.034260        -0.111477        -0.149952
 C         1.399189         0.080157        -0.077773
 C         2.213030         1.174525        -0.759967
 C         3.594915         0.946247        -0.465592
 C         4.210876        -0.398567        -0.938519
 C         3.442419        -1.123841         0.092844
 O         1.966183        -1.172816        -0.253563
 C         3.341259         0.168819         1.012037
 O         2.039227         0.468485         1.364501
 H        -0.268018        -0.798533         0.721820
 H        -0.645796         0.830889        -0.090381
 H        -0.299474        -0.797433        -0.972039
 H         1.902251         1.110741        -1.821700
 H         1.801189         2.087887        -0.475482
 H         4.272303         1.869046        -0.416912
 H         3.987430        -0.646807        -1.950324
 H         5.268611        -0.519351        -0.671629
 H         3.575169        -2.129535         0.552966
 H         4.034319         0.266022         1.876595
