19
Iteration:   746charge 0 multiplicity 1
 C        -0.096849        -0.056281        -0.023555
 C         1.452045         0.077770        -0.033514
 C         2.194753         1.169680        -0.826586
 C         3.645424         0.910349        -0.436311
 C         4.241371        -0.390964        -0.937664
 C         3.403788        -1.129767         0.217446
 O         1.999141        -1.245522        -0.280054
 C         3.351474         0.277423         0.941586
 O         1.952623         0.403270         1.272684
 H        -0.158657        -1.000048         0.502641
 H        -0.677459         0.742471         0.344877
 H        -0.507780        -0.226046        -1.071852
 H         2.067788         0.948614        -1.963759
 H         2.043491         2.221899        -0.604640
 H         4.239470         1.927788        -0.518412
 H         4.028080        -0.685482        -1.976648
 H         5.348843        -0.390004        -0.747075
 H         3.712139        -2.067054         0.695544
 H         4.090709         0.532181         1.726094
