19
Iteration:  2064
 C        -0.059513        -0.069452         0.082890
 C         1.426695         0.142991         0.022515
 C         2.193516         1.090650        -1.001151
 C         3.639333         0.953938        -0.372531
 C         4.295234        -0.361616        -0.893467
 C         3.431066        -1.158586         0.091892
 O         2.027220        -1.183653        -0.353043
 C         3.256526         0.187845         0.994207
 O         1.978831         0.425814         1.301884
 H        -0.487815        -1.058106         0.544944
 H        -0.539787         0.738123         0.626042
 H        -0.532484         0.107592        -0.887982
 H         2.043249         0.651778        -1.991322
 H         1.793264         2.040956        -0.977344
 H         4.152844         1.985680        -0.406984
 H         4.263527        -0.723556        -1.854217
 H         5.258251        -0.542736        -0.369821
 H         3.549099        -2.194464         0.294766
 H         3.933797         0.522341         1.830267
