19
Iteration:  3688
 C        -0.068692        -0.079618        -0.079857
 C         1.348905         0.057967        -0.004946
 C         2.198651         1.078660        -0.885507
 C         3.645098         0.928606        -0.396871
 C         4.211032        -0.321636        -0.891743
 C         3.354248        -1.053688         0.083211
 O         2.017940        -1.211920        -0.257783
 C         3.408397         0.171544         0.971659
 O         2.007427         0.465322         1.324509
 H        -0.199719        -0.807550         0.735184
 H        -0.592856         0.824504        -0.076551
 H        -0.235873        -0.565656        -0.974741
 H         2.056169         0.920827        -2.016835
 H         1.832918         2.227553        -0.729932
 H         4.276263         1.836813        -0.324734
 H         4.021956        -0.626002        -1.868597
 H         5.198826        -0.546645        -0.578266
 H         3.764879        -2.022390         0.396109
 H         4.020242         0.154594         1.905602
