19
Iteration:  3453charge 0 multiplicity 1
 C        -0.126016        -0.035081         0.065747
 C         1.412116         0.041057        -0.016585
 C         2.113592         1.157346        -0.941319
 C         3.610114         0.898601        -0.415030
 C         4.329853        -0.380000        -0.822657
 C         3.398338        -1.196063         0.180337
 O         2.026869        -1.140665        -0.413444
 C         3.370695         0.197638         0.918639
 O         1.977869         0.430689         1.315518
 H        -0.273388        -1.023628         0.637708
 H        -0.418171         0.938295         0.397735
 H        -0.562524        -0.156097        -0.945101
 H         2.079644         0.834662        -2.036772
 H         1.731006         2.220362        -0.742618
 H         4.228046         1.815346        -0.517215
 H         4.543193        -0.604953        -1.904791
 H         5.198497        -0.205031        -0.190470
 H         3.678155        -2.180662         0.583806
 H         4.134109         0.348234         1.734839
