19
Iteration:  1461charge 0 multiplicity 1
 C        -0.032844        -0.107603        -0.131698
 C         1.408812         0.128543         0.021555
 C         2.163445         1.188308        -0.780550
 C         3.622573         0.927474        -0.436815
 C         4.201766        -0.421543        -0.924401
 C         3.381916        -1.083981         0.148950
 O         1.986350        -1.190524        -0.261306
 C         3.389018         0.201402         0.945357
 O         2.016488         0.418338         1.324903
 H        -0.318838        -1.177754         0.158571
 H        -0.614271         0.701451         0.226692
 H        -0.127000        -0.075649        -1.209427
 H         2.003687         1.006428        -1.853234
 H         1.618838         2.148779        -0.557102
 H         4.174628         1.849630        -0.264469
 H         4.099108        -0.753284        -1.966446
 H         5.247924        -0.632683        -0.729009
 H         3.763697        -1.996390         0.521154
 H         4.211178         0.126780         1.636667
