19
Iteration:  1119
 C        -0.109455         0.014012         0.057455
 C         1.438549         0.071602         0.004458
 C         2.181310         1.057883        -0.889747
 C         3.607539         0.914858        -0.377533
 C         4.304545        -0.311473        -0.825232
 C         3.379403        -1.153281         0.089814
 O         2.003950        -1.205944        -0.404454
 C         3.326221         0.252864         0.953302
 O         1.987516         0.375531         1.286895
 H        -0.242098        -0.917733         0.670263
 H        -0.467856         1.066231         0.538704
 H        -0.498066        -0.036613        -0.981085
 H         2.176798         0.675203        -1.891494
 H         1.593181         2.025756        -0.893226
 H         4.213494         1.903913        -0.644940
 H         4.472350        -0.689353        -1.858975
 H         5.247251        -0.509049        -0.273274
 H         3.780519        -2.063686         0.432076
 H         4.042243         0.501655         1.713737
