19
Iteration:  3132
 C        -0.027480        -0.054976        -0.097536
 C         1.451935         0.093488        -0.017844
 C         2.242228         1.202685        -0.827048
 C         3.697302         0.923382        -0.339012
 C         4.174199        -0.358168        -1.007437
 C         3.351168        -1.079208         0.161024
 O         2.034130        -1.215334        -0.301206
 C         3.306695         0.246246         1.011763
 O         1.933643         0.302260         1.297056
 H        -0.344589        -0.522011         0.836429
 H        -0.400573         0.931394         0.078665
 H        -0.343405        -0.637891        -0.960504
 H         2.239772         1.019228        -1.893863
 H         1.718806         2.144454        -0.510389
 H         4.334585         1.787969        -0.343119
 H         3.781068        -0.463243        -1.955121
 H         5.219813        -0.623448        -1.080706
 H         3.647427        -2.014008         0.515756
 H         4.031480         0.132875         1.856956
