19
Iteration:   620charge 0 multiplicity 1
 C        -0.074058        -0.114700        -0.075133
 C         1.404760         0.081825         0.003400
 C         2.221331         1.135505        -0.864904
 C         3.649969         0.892171        -0.356145
 C         4.303558        -0.381207        -1.003369
 C         3.394044        -1.091473         0.166860
 O         1.927735        -1.219352        -0.288672
 C         3.340401         0.227425         0.947965
 O         1.993124         0.477802         1.334486
 H        -0.375691        -0.694862         0.940074
 H        -0.731465         0.748701        -0.150318
 H        -0.200575        -0.748517        -0.975023
 H         2.046989         1.115621        -1.925748
 H         1.810584         2.083306        -0.432804
 H         4.288320         1.713426        -0.401430
 H         3.974956        -0.462153        -2.054883
 H         5.408621        -0.508490        -0.975827
 H         3.853694        -2.032171         0.675824
 H         4.029808         0.485821         1.828510
