19
Iteration:   138charge 0 multiplicity 1
 C        -0.013516        -0.132306         0.025879
 C         1.461092         0.030741        -0.110713
 C         2.170814         1.176493        -0.986817
 C         3.592331         0.912902        -0.481804
 C         4.244890        -0.409134        -0.906791
 C         3.388012        -1.045823         0.218045
 O         1.957844        -1.176663        -0.223788
 C         3.296020         0.287477         0.998980
 O         2.023074         0.386475         1.300903
 H        -0.240598        -1.000895         0.593701
 H        -0.338619         0.835324         0.652707
 H        -0.529416        -0.208812        -0.919913
 H         2.226346         0.903685        -2.086455
 H         1.856889         2.215103        -0.727507
 H         4.323043         1.792833        -0.492786
 H         4.080179        -0.724299        -1.962922
 H         5.387297        -0.456146        -0.711368
 H         3.551005        -2.170667         0.684412
 H         4.031692         0.442914         1.739209
