19
Iteration:  1199
 C        -0.071115        -0.124113        -0.123544
 C         1.407484         0.199576         0.036467
 C         2.152203         1.198525        -0.841662
 C         3.623093         0.878686        -0.335837
 C         4.247705        -0.401704        -1.040007
 C         3.416784        -1.189125         0.131112
 O         2.030983        -1.159676        -0.288874
 C         3.339726         0.190550         1.003274
 O         1.993793         0.432382         1.340326
 H        -0.432186        -0.751372         0.713698
 H        -0.582678         0.812057        -0.078473
 H        -0.151670        -0.660050        -1.107191
 H         1.878561         0.950489        -1.831393
 H         1.887017         2.234142        -0.636716
 H         4.214401         1.830939        -0.427796
 H         4.089541        -0.808802        -2.058479
 H         5.287533        -0.394296        -0.755676
 H         3.684681        -2.128290         0.627812
 H         4.059613         0.355626         1.860458
