19
Iteration:  3101charge 0 multiplicity 1
 C        -0.042975        -0.108909        -0.173861
 C         1.443575         0.130684         0.105538
 C         2.086885         1.225667        -0.774102
 C         3.603433         0.945395        -0.414144
 C         4.269479        -0.437225        -0.928296
 C         3.316666        -1.123387         0.079728
 O         2.043362        -1.206869        -0.294309
 C         3.342226         0.197472         0.999643
 O         2.045660         0.411828         1.340815
 H        -0.532080        -0.820602         0.419285
 H        -0.491285         0.910314        -0.264395
 H        -0.194658        -0.389849        -1.212256
 H         2.043627         1.251161        -1.891617
 H         1.760770         2.366982        -0.433687
 H         4.361890         1.746940        -0.491281
 H         4.088004        -0.703345        -2.069516
 H         5.286206        -0.638911        -0.587225
 H         3.647380        -2.098706         0.370238
 H         4.096155        -0.029307         1.774210
