19
Iteration:   622charge 0 multiplicity 1
 C        -0.049158        -0.120551        -0.078781
 C         1.413265         0.072814        -0.006514
 C         2.236972         1.165262        -0.873664
 C         3.636514         0.902141        -0.354806
 C         4.285021        -0.379213        -1.018648
 C         3.383017        -1.084421         0.183381
 O         1.924462        -1.236250        -0.278202
 C         3.343368         0.240685         0.957306
 O         1.997226         0.462428         1.340814
 H        -0.273279        -0.655735         0.843719
 H        -0.734196         0.802338        -0.190183
 H        -0.197470        -0.716568        -0.922508
 H         2.046840         1.072316        -1.894869
 H         1.745254         2.076150        -0.468778
 H         4.266195         1.736418        -0.363548
 H         3.961349        -0.533333        -2.103710
 H         5.373995        -0.512944        -0.937035
 H         3.760027        -2.100706         0.628464
 H         4.036190         0.482911         1.794108
