19
Iteration:  2610charge 0 multiplicity 1
 C        -0.118832        -0.016155         0.084541
 C         1.406823        -0.005624        -0.050700
 C         2.226967         1.079737        -0.983629
 C         3.666732         0.968718        -0.395149
 C         4.344533        -0.298934        -0.941026
 C         3.391517        -1.108593         0.158402
 O         1.993847        -1.229877        -0.294443
 C         3.366800         0.225393         1.001980
 O         1.922847         0.423441         1.269558
 H        -0.454654        -0.862633         0.635166
 H        -0.391189         0.903657         0.553037
 H        -0.680728        -0.192729        -0.835020
 H         2.128206         0.844996        -2.099211
 H         1.836167         2.071408        -0.549168
 H         4.074399         1.998910        -0.563927
 H         4.181776        -0.770580        -1.928380
 H         5.355502        -0.493025        -0.610916
 H         3.657862        -2.167211         0.415200
 H         3.933339         0.265888         1.969531
