19
Iteration:  1622charge 0 multiplicity 1
 C        -0.112534         0.054905        -0.108660
 C         1.460193         0.041465         0.024286
 C         2.143151         1.072704        -0.929155
 C         3.669132         0.989887        -0.396412
 C         4.226508        -0.299375        -0.954324
 C         3.388715        -1.107615         0.093641
 O         2.019199        -1.232524        -0.208790
 C         3.386719         0.217991         1.017612
 O         1.985359         0.318052         1.336137
 H        -0.655706        -0.614829         0.635753
 H        -0.273490         1.025546         0.286818
 H        -0.413945        -0.186108        -1.135822
 H         2.154374         0.780722        -1.925769
 H         1.568029         2.009254        -0.902213
 H         4.295208         1.965678        -0.535753
 H         4.037472        -0.798587        -1.964354
 H         5.248977        -0.551529        -0.736575
 H         3.641040        -2.102456         0.527388
 H         4.105603         0.291331         1.838907
