19
Iteration:  3926charge 0 multiplicity 1
 C        -0.002035        -0.050235        -0.096913
 C         1.496684         0.084956         0.030694
 C         2.131521         1.267536        -0.861953
 C         3.559868         0.910774        -0.377214
 C         4.147485        -0.415723        -1.006795
 C         3.468915        -1.112065         0.217324
 O         2.077335        -1.224400        -0.320499
 C         3.335108         0.183722         0.960049
 O         1.951531         0.370318         1.351347
 H        -0.517082        -0.801217         0.637208
 H        -0.544851         0.914499        -0.058394
 H        -0.473868        -0.366014        -1.024619
 H         2.084392         1.164240        -1.948530
 H         1.847543         2.200717        -0.573839
 H         4.298651         1.743022        -0.334100
 H         3.667092        -0.633903        -2.001695
 H         5.192365        -0.452872        -0.900733
 H         4.006309        -1.994332         0.648531
 H         4.051152         0.289800         1.767771
