19
Iteration:  1599charge 0 multiplicity 1
 C         0.001316         0.007451        -0.129505
 C         1.528962         0.065251         0.022148
 C         2.175875         1.145442        -0.850681
 C         3.641553         0.904512        -0.360551
 C         4.159114        -0.323148        -0.996868
 C         3.437278        -1.120239         0.113826
 O         1.965335        -1.317026        -0.212555
 C         3.305471         0.237860         0.998805
 O         1.978129         0.438786         1.281895
 H        -0.431780        -0.630217         0.653722
 H        -0.563163         0.925216         0.030275
 H        -0.302371        -0.575956        -1.046196
 H         2.138864         1.155078        -1.875136
 H         1.744508         2.050192        -0.495656
 H         4.362887         1.792913        -0.297618
 H         3.701783        -0.523503        -2.016181
 H         5.203297        -0.527879        -1.119759
 H         3.775631        -2.020941         0.698847
 H         4.002814         0.228567         1.878817
