19
Iteration:  4610charge 0 multiplicity 1
 C        -0.054067        -0.000732        -0.121620
 C         1.417788         0.087017        -0.033846
 C         2.207098         1.197163        -0.874740
 C         3.600322         0.990061        -0.318548
 C         4.172724        -0.366056        -1.047385
 C         3.444461        -1.138753         0.129750
 O         2.042567        -1.357065        -0.203885
 C         3.343138         0.226432         1.009015
 O         1.947915         0.375213         1.327800
 H        -0.325648        -0.728536         0.590175
 H        -0.542727         0.920889         0.124544
 H        -0.496569        -0.249213        -1.087650
 H         2.259694         1.303419        -1.974662
 H         1.859599         2.171669        -0.501150
 H         4.283481         1.882896        -0.250769
 H         3.783789        -0.656521        -2.079827
 H         5.350474        -0.474287        -0.936361
 H         4.106017        -1.947041         0.447707
 H         4.015359         0.365360         1.862819
