19
Iteration:  1977
 C        -0.107371         0.020871        -0.067687
 C         1.399802         0.051305        -0.022672
 C         2.169624         1.045393        -0.938362
 C         3.596519         0.989670        -0.336598
 C         4.255834        -0.321410        -0.973794
 C         3.434538        -1.136705         0.089333
 O         2.006934        -1.216468        -0.232715
 C         3.403714         0.232549         0.982121
 O         1.974421         0.362760         1.367197
 H        -0.550562        -0.524334         0.840753
 H        -0.252258         1.075028        -0.048528
 H        -0.445836        -0.519284        -0.936444
 H         2.057859         0.704785        -1.998423
 H         1.691404         1.986113        -0.892363
 H         4.296702         1.828427        -0.502473
 H         4.218505        -0.526673        -1.989971
 H         5.264792        -0.554944        -0.499871
 H         3.868512        -2.073711         0.325766
 H         4.036656         0.511159         1.851225
