19
Iteration:   504charge 0 multiplicity 1
 C        -0.053302        -0.132539        -0.099130
 C         1.489308         0.112067         0.029674
 C         2.185607         1.196111        -0.870297
 C         3.625025         0.937229        -0.454001
 C         4.125123        -0.454429        -0.913986
 C         3.370718        -1.129392         0.116913
 O         2.047004        -1.237184        -0.317116
 C         3.370424         0.332297         1.025401
 O         1.999173         0.381641         1.375892
 H        -0.270783        -1.031264         0.363112
 H        -0.647904         0.755864         0.457218
 H        -0.407418        -0.083036        -1.101785
 H         2.112847         1.075952        -1.958652
 H         1.851899         2.222351        -0.571576
 H         4.253120         1.872345        -0.487398
 H         3.801978        -0.696371        -1.953422
 H         5.194667        -0.513312        -0.840114
 H         3.629592        -2.109770         0.438642
 H         4.112593         0.685173         1.787113
