19
Iteration:  1255
 C        -0.099929         0.109128         0.100355
 C         1.413614         0.032811        -0.039037
 C         2.162283         1.081428        -0.994258
 C         3.655882         0.979435        -0.319362
 C         4.297736        -0.277901        -0.859001
 C         3.471517        -1.159470         0.043763
 O         2.086038        -1.281619        -0.301013
 C         3.275478         0.172295         1.005242
 O         1.925934         0.371727         1.226795
 H        -0.677328        -0.655548         0.756416
 H        -0.220472         1.049605         0.465816
 H        -0.678665         0.205541        -0.820687
 H         1.834754         0.778511        -2.003072
 H         1.779432         2.029122        -0.769318
 H         4.090868         1.964229        -0.294032
 H         4.232893        -0.812354        -1.800394
 H         5.376909        -0.402708        -0.625220
 H         3.724789        -2.258370         0.244300
 H         3.951567         0.232452         1.861510
