19
Iteration:  2444charge 0 multiplicity 1
 C        -0.092925         0.040515        -0.106737
 C         1.466071         0.020239         0.018564
 C         2.125480         1.109209        -0.865194
 C         3.620843         0.981897        -0.418518
 C         4.207415        -0.367613        -0.961490
 C         3.478009        -1.100282         0.166751
 O         2.051896        -1.254210        -0.226927
 C         3.356664         0.222973         0.988225
 O         1.944731         0.368181         1.290005
 H        -0.314344        -0.920637         0.298675
 H        -0.341002         0.962998         0.456935
 H        -0.382279         0.048676        -1.148294
 H         1.946090         0.986513        -2.013914
 H         1.663321         2.015749        -0.258896
 H         4.081629         2.016438        -0.595590
 H         3.830581        -0.869757        -1.821781
 H         5.328627        -0.566293        -0.896437
 H         3.968985        -1.996819         0.451426
 H         4.055733         0.441693         1.747337
