19
Iteration:   298charge 0 multiplicity 1
 C        -0.173784         0.027273         0.109196
 C         1.397587         0.000484         0.000478
 C         2.147957         0.993265        -0.966102
 C         3.572894         0.992147        -0.285282
 C         4.364165        -0.339698        -0.877057
 C         3.450193        -1.153612         0.141478
 O         2.028107        -1.243531        -0.415762
 C         3.300914         0.267591         0.941379
 O         2.051488         0.434710         1.258397
 H        -0.667832        -0.682304         0.702984
 H        -0.396577         1.175395         0.491447
 H        -0.601741        -0.123110        -0.862807
 H         2.202482         0.611919        -1.995513
 H         1.711238         2.022956        -0.889288
 H         4.286853         1.900579        -0.305268
 H         4.071825        -0.712423        -1.893605
 H         5.444400        -0.353749        -0.742127
 H         3.697732        -2.099830         0.542442
 H         3.983025         0.577402         1.780841
