19
Iteration:  4892
 C        -0.089863        -0.042019        -0.125130
 C         1.404873         0.090397        -0.037961
 C         2.200180         1.157483        -0.874529
 C         3.607245         0.907835        -0.353204
 C         4.171169        -0.340467        -0.983689
 C         3.401180        -1.080099         0.137583
 O         2.025762        -1.234434        -0.269481
 C         3.369778         0.215739         1.008352
 O         2.038058         0.344298         1.349643
 H        -0.270472        -0.840150         0.538718
 H        -0.429407         0.918337         0.112891
 H        -0.400701        -0.267251        -1.185580
 H         2.119260         1.263296        -1.929718
 H         1.830533         2.098517        -0.469092
 H         4.113302         1.820985        -0.222282
 H         4.016313        -0.754527        -2.053395
 H         5.223254        -0.518835        -0.656991
 H         3.776370        -2.025823         0.522405
 H         3.948100         0.466188         1.889273
