19
Iteration:  4078charge 0 multiplicity 1
 C        -0.023715        -0.074322        -0.083127
 C         1.486331         0.098096        -0.030055
 C         2.201295         1.161501        -0.812629
 C         3.582102         0.979845        -0.293827
 C         4.119231        -0.409182        -1.020568
 C         3.417263        -1.135720         0.078257
 O         2.041951        -1.208264        -0.275102
 C         3.383166         0.217619         1.006672
 O         1.959187         0.393277         1.316410
 H        -0.521137        -0.732655         0.672133
 H        -0.598218         0.860178         0.062284
 H        -0.115443        -0.483973        -1.100824
 H         2.175898         0.991314        -1.958845
 H         1.828580         2.268191        -0.480230
 H         4.337106         1.767292        -0.334092
 H         3.743081        -0.604302        -2.077789
 H         5.181225        -0.472865        -0.994906
 H         3.694771        -2.115133         0.588628
 H         3.990832         0.336250         1.913147
