19
Iteration:  2598
 C        -0.084777        -0.016155         0.006001
 C         1.434737         0.062805        -0.002668
 C         2.197784         1.099432        -0.940875
 C         3.633402         0.966869        -0.408473
 C         4.307915        -0.326158        -0.948246
 C         3.393464        -1.104432         0.054620
 O         1.987217        -1.302239        -0.186308
 C         3.290334         0.175233         1.004390
 O         1.969193         0.420099         1.286333
 H        -0.401565        -0.736905         0.725305
 H        -0.498723         0.977045         0.301688
 H        -0.337469        -0.141963        -1.070343
 H         2.117365         0.800781        -2.057729
 H         1.690679         2.129754        -0.999052
 H         4.313106         1.868613        -0.187964
 H         4.250022        -0.366891        -2.026219
 H         5.378571        -0.282888        -0.704803
 H         3.795798        -1.988618         0.550042
 H         4.033269         0.385891         1.779515
