19
Iteration:   648
 C        -0.007215         0.024748        -0.091793
 C         1.450649         0.080848         0.038554
 C         2.188466         1.145830        -0.924148
 C         3.592506         0.968273        -0.399446
 C         4.105935        -0.333746        -0.914926
 C         3.460832        -1.130185         0.164176
 O         2.052187        -1.254269        -0.199882
 C         3.351369         0.168039         1.013308
 O         1.971705         0.358325         1.250940
 H        -0.362852        -0.585321         0.733614
 H        -0.373568         1.038161        -0.194299
 H        -0.255501        -0.387855        -1.118477
 H         1.919402         0.908467        -2.038647
 H         1.580882         1.996429        -0.583179
 H         4.350804         1.794606        -0.776841
 H         3.739524        -0.436596        -1.944077
 H         5.190550        -0.537385        -0.850520
 H         3.974083        -2.025608         0.485523
 H         3.867830         0.310032         1.933042
