19
Iteration:  2858
 C        -0.095972        -0.074038        -0.079871
 C         1.533916         0.130811         0.028199
 C         2.233436         1.171028        -0.912207
 C         3.637486         0.963458        -0.340747
 C         4.151196        -0.364492        -0.945978
 C         3.382009        -1.086788         0.125861
 O         2.020629        -1.281543        -0.270319
 C         3.333046         0.190998         1.002802
 O         1.949850         0.419605         1.285921
 H        -0.252443        -0.971711         0.487385
 H        -0.711580         0.645436         0.456743
 H        -0.386368        -0.130130        -1.122829
 H         2.171097         0.802104        -1.910318
 H         1.845177         2.140499        -0.879431
 H         4.431997         1.707023        -0.339994
 H         3.866808        -0.675680        -1.925854
 H         5.273174        -0.464673        -0.731552
 H         3.828802        -1.958289         0.452025
 H         4.024161         0.355122         1.814134
