19
Iteration:  3215
 C        -0.022792        -0.041480         0.009324
 C         1.471766         0.078475        -0.037461
 C         2.208900         1.144402        -0.898267
 C         3.619407         0.922756        -0.325621
 C         4.231933        -0.384222        -0.955131
 C         3.386176        -1.087699         0.153946
 O         2.045738        -1.163361        -0.323850
 C         3.317829         0.145505         0.977588
 O         1.937999         0.389417         1.269956
 H        -0.219212        -1.070564         0.424301
 H        -0.437243         0.783189         0.556451
 H        -0.509951         0.130529        -0.950280
 H         2.073273         1.203432        -2.001098
 H         1.657564         1.982994        -0.550161
 H         4.032556         1.960548        -0.218774
 H         3.819756        -0.565158        -2.035586
 H         5.304806        -0.661193        -0.820702
 H         3.725124        -2.142299         0.553173
 H         3.979690         0.257499         1.894154
