19
Iteration:  3662charge 0 multiplicity 1
 C         0.000741         0.037420        -0.137227
 C         1.407555         0.042016         0.019752
 C         2.150793         1.149943        -0.799709
 C         3.636775         0.941749        -0.408809
 C         4.182127        -0.347263        -0.940874
 C         3.435884        -1.146411         0.135341
 O         2.060713        -1.319036        -0.176202
 C         3.343892         0.315165         0.948563
 O         1.948213         0.325272         1.254880
 H        -0.321620        -0.625171         0.655876
 H        -0.278604         1.136701         0.009272
 H        -0.325507        -0.176036        -1.229244
 H         1.924962         0.937406        -1.868231
 H         1.788677         2.147979        -0.701079
 H         4.279316         1.786434        -0.255534
 H         3.586235        -0.562306        -1.947295
 H         5.292265        -0.417437        -1.112851
 H         3.909249        -2.046814         0.604909
 H         3.832308         0.626931         1.870378
