19
Iteration:  3872
 C        -0.030304         0.017659         0.048217
 C         1.445117         0.087828         0.006933
 C         2.182413         1.057673        -0.930160
 C         3.577273         1.021787        -0.364776
 C         4.361076        -0.280207        -0.871928
 C         3.370895        -1.199977         0.036054
 O         1.993571        -1.212560        -0.297944
 C         3.293230         0.167766         0.950960
 O         1.984559         0.374465         1.311369
 H        -0.606504        -0.609797         0.885625
 H        -0.606487         0.979535         0.135242
 H        -0.529552        -0.349515        -0.839857
 H         2.042072         0.692001        -1.948558
 H         1.646462         1.910301        -1.009429
 H         4.101666         2.012186        -0.194248
 H         4.412173        -0.466830        -2.054701
 H         5.449855        -0.499592        -0.590814
 H         3.774635        -2.230221         0.204808
 H         3.992112         0.329623         1.779665
