19
Iteration:  4310
 C        -0.067682        -0.057369        -0.070584
 C         1.493918         0.132580        -0.009872
 C         2.173544         1.122392        -0.877227
 C         3.570497         0.921627        -0.414128
 C         4.323113        -0.350867        -0.968823
 C         3.363767        -1.148937         0.107560
 O         2.023592        -1.173093        -0.255950
 C         3.356863         0.168173         0.993806
 O         1.943370         0.406537         1.358660
 H        -0.408768        -0.775146         0.682314
 H        -0.729036         0.834392         0.144341
 H        -0.271951        -0.436606        -1.066523
 H         1.991018         0.857665        -1.922635
 H         1.877983         2.211197        -0.604058
 H         4.238391         1.717474        -0.543820
 H         4.043591        -0.578552        -2.117196
 H         5.368426        -0.274295        -0.610067
 H         3.570292        -2.147040         0.446898
 H         4.003138         0.235090         1.906421
