19
Iteration:  4897
 C        -0.055656        -0.057683        -0.146062
 C         1.427951         0.051377        -0.038925
 C         2.164916         1.163399        -0.857150
 C         3.560909         0.953984        -0.375094
 C         4.224664        -0.347760        -0.933475
 C         3.383204        -1.109461         0.125923
 O         1.998237        -1.220766        -0.263570
 C         3.361424         0.212698         0.974233
 O         2.052130         0.347893         1.345998
 H        -0.473151        -0.743619         0.696346
 H        -0.557846         0.937015         0.215162
 H        -0.372326        -0.134495        -1.162807
 H         2.226574         1.157021        -2.008973
 H         1.888095         2.163586        -0.463378
 H         4.318712         1.825579        -0.246238
 H         3.967693        -0.643998        -1.910220
 H         5.289008        -0.480364        -0.748144
 H         3.779849        -2.051496         0.554276
 H         4.039564         0.361708         1.846042
