19
Iteration:  3839
 C        -0.122862        -0.047338         0.057228
 C         1.427223         0.060659        -0.045246
 C         2.223773         1.201366        -0.902694
 C         3.635514         0.997392        -0.407710
 C         4.285377        -0.395234        -0.903920
 C         3.405334        -1.124435         0.203817
 O         2.066349        -1.211005        -0.385695
 C         3.292858         0.231354         0.932816
 O         1.949631         0.342468         1.307062
 H        -0.336103        -0.909357         0.832844
 H        -0.376662         0.944323         0.495768
 H        -0.518396        -0.233497        -0.931296
 H         2.100996         0.976581        -1.960699
 H         1.743571         2.052105        -0.617556
 H         4.252992         1.921195        -0.343814
 H         3.909930        -0.667524        -1.982081
 H         5.374995        -0.647395        -0.772607
 H         3.626633        -2.139234         0.584055
 H         3.923088         0.343220         1.821441
