19
Iteration:  3732charge 0 multiplicity 1
 C        -0.126093        -0.041726         0.103690
 C         1.487479         0.114193        -0.066164
 C         2.194890         1.084408        -0.899914
 C         3.619766         0.928960        -0.394864
 C         4.269216        -0.358451        -0.822768
 C         3.417550        -1.101322         0.146473
 O         2.089517        -1.197930        -0.381474
 C         3.261652         0.211351         0.952872
 O         1.950603         0.356063         1.222530
 H        -0.205221        -0.636648         1.017602
 H        -0.342202         0.958095         0.228265
 H        -0.658363        -0.313153        -0.718614
 H         1.823223         0.980942        -1.959103
 H         1.690165         2.188533        -0.716039
 H         4.235399         1.842425        -0.610899
 H         4.149532        -0.642499        -1.805911
 H         5.289436        -0.409571        -0.477951
 H         3.689310        -2.045515         0.605107
 H         3.917731         0.323422         1.825140
