19
Iteration:  4593
 C        -0.045303         0.000430        -0.066140
 C         1.482369         0.052884         0.011899
 C         2.161376         1.109875        -0.835399
 C         3.706519         1.013029        -0.391378
 C         4.187601        -0.288742        -0.940820
 C         3.375789        -1.122994         0.134325
 O         2.022162        -1.287878        -0.248519
 C         3.329272         0.192690         0.982061
 O         1.972859         0.360851         1.243589
 H        -0.526590        -0.897049         0.479318
 H        -0.529227         1.002051         0.173520
 H        -0.175490        -0.042517        -1.175326
 H         2.004382         0.653270        -1.824220
 H         1.707003         2.099033        -0.600558
 H         4.320199         1.893785        -0.387308
 H         3.698170        -0.401707        -1.880699
 H         5.237308        -0.344714        -0.982418
 H         3.720642        -2.039695         0.731415
 H         3.976681         0.248261         1.895987
