19
Iteration:   457
 C        -0.074196         0.067162         0.049655
 C         1.506405         0.038054         0.008155
 C         2.211582         1.041000        -0.955120
 C         3.653160         1.039951        -0.409837
 C         4.195474        -0.233077        -0.886267
 C         3.380615        -1.195356         0.124384
 O         1.955528        -1.281906        -0.344064
 C         3.301458         0.256135         0.965961
 O         2.007014         0.317735         1.324381
 H        -0.382932        -0.660415         0.943234
 H        -0.542761         0.991769         0.110395
 H        -0.364339        -0.358585        -0.939271
 H         2.040224         0.772232        -1.980332
 H         1.824964         2.049930        -0.770224
 H         4.233101         1.884665        -0.546656
 H         4.320202        -0.372935        -1.981968
 H         5.261839        -0.317047        -0.453135
 H         3.769454        -2.288800         0.424986
 H         4.064425         0.383917         1.828477
