19
Iteration:  1467charge 0 multiplicity 1
 C        -0.057490        -0.081145        -0.141743
 C         1.454600         0.146873         0.057574
 C         2.104955         1.164652        -0.821069
 C         3.627705         0.950262        -0.415269
 C         4.197246        -0.417320        -0.917095
 C         3.421956        -1.089814         0.129342
 O         1.991491        -1.235225        -0.259704
 C         3.345454         0.170711         0.940877
 O         2.030438         0.418113         1.332177
 H        -0.223680        -1.048017         0.186332
 H        -0.712108         0.754301         0.269193
 H        -0.128134         0.000216        -1.263676
 H         2.069537         1.022105        -1.901611
 H         1.784649         2.205987        -0.556597
 H         4.318739         1.840885        -0.363946
 H         4.042553        -0.833048        -1.941087
 H         5.316410        -0.278804        -0.717961
 H         3.599923        -2.169019         0.496587
 H         4.167771         0.277358         1.731809
