19
Iteration:   583
 C         0.020952         0.033501         0.066793
 C         1.472200         0.092263        -0.052694
 C         2.119285         1.097184        -0.991932
 C         3.570445         0.935112        -0.408962
 C         4.283981        -0.352075        -0.834297
 C         3.434988        -1.126079         0.150247
 O         1.955252        -1.227050        -0.358898
 C         3.303424         0.237100         0.953743
 O         1.984282         0.304883         1.330596
 H        -0.212720        -0.701012         0.892469
 H        -0.390425         1.078250         0.176433
 H        -0.479345        -0.437865        -0.843829
 H         2.158955         0.869778        -2.125341
 H         1.820167         2.145285        -0.850727
 H         4.146073         1.959613        -0.375772
 H         4.246783        -0.584557        -1.897719
 H         5.330115        -0.257664        -0.516964
 H         3.588267        -1.980495         0.786257
 H         4.014788         0.480884         1.694729
