19
Iteration:   377charge 0 multiplicity 1
 C        -0.032931        -0.176714        -0.123587
 C         1.459633         0.113520         0.048614
 C         2.176132         1.195053        -0.873450
 C         3.650754         0.908681        -0.380524
 C         4.195322        -0.363556        -1.001781
 C         3.393638        -1.155053         0.085041
 O         2.010289        -1.138642        -0.243073
 C         3.374975         0.211362         1.040594
 O         1.941429         0.433652         1.359114
 H        -0.315654        -0.978196         0.610357
 H        -0.634603         0.725895         0.214343
 H        -0.264187        -0.537504        -1.148019
 H         2.080916         1.053692        -1.984566
 H         1.951445         2.219003        -0.556533
 H         4.326611         1.793693        -0.609553
 H         3.813824        -0.693054        -1.977452
 H         5.318066        -0.560928        -0.989718
 H         3.624065        -2.235601         0.315582
 H         3.982814         0.527010         1.822375
