19
Iteration:  4392
 C        -0.118641        -0.025249         0.015693
 C         1.428292         0.048076        -0.070319
 C         2.186925         1.098459        -0.908883
 C         3.604250         0.930905        -0.414284
 C         4.347543        -0.365112        -0.848277
 C         3.408468        -1.085087         0.117227
 O         1.951923        -1.196039        -0.363727
 C         3.339712         0.197444         0.982907
 O         2.040805         0.403514         1.356529
 H        -0.617083        -0.888321         0.538349
 H        -0.632521         0.905880         0.302272
 H        -0.734133        -0.128268        -0.957688
 H         1.840776         0.878037        -1.973011
 H         1.766380         2.105721        -0.652865
 H         4.255225         1.855531        -0.547492
 H         4.513587        -0.503412        -1.826553
 H         5.386296        -0.381160        -0.459692
 H         3.630198        -2.114784         0.540519
 H         4.073548         0.186106         1.745986
