19
Iteration:  2312
 C        -0.075086        -0.056000        -0.063888
 C         1.447731         0.089203         0.023704
 C         2.234349         1.146758        -0.865990
 C         3.673829         0.992830        -0.321570
 C         4.235536        -0.366918        -1.004256
 C         3.372076        -1.131664         0.106660
 O         1.974959        -1.235503        -0.221515
 C         3.391317         0.181735         0.927960
 O         1.915348         0.402890         1.290729
 H        -0.481862        -0.759078         0.709259
 H        -0.642268         0.811001         0.127546
 H        -0.314218        -0.483884        -0.997172
 H         2.066920         1.015880        -1.988153
 H         1.562992         2.039798        -0.604485
 H         4.168828         1.972513        -0.435512
 H         4.267715        -0.366244        -2.097738
 H         5.319879        -0.564851        -0.671468
 H         3.993342        -1.861229         0.542018
 H         4.175256         0.074398         1.763945
