19
Iteration:  2263charge 0 multiplicity 1
 C        -0.037813        -0.035936        -0.070593
 C         1.378074         0.002101         0.030893
 C         2.192273         1.187441        -0.862765
 C         3.622585         0.930270        -0.423329
 C         4.278504        -0.405068        -0.951992
 C         3.396198        -1.100167         0.179745
 O         2.026998        -1.160237        -0.284118
 C         3.318971         0.233178         0.939302
 O         1.983492         0.355461         1.328026
 H        -0.480582        -0.961917         0.298428
 H        -0.447415         0.833488         0.568877
 H        -0.286305        -0.005781        -1.202042
 H         1.911920         1.027278        -1.882067
 H         1.780266         2.141567        -0.642176
 H         4.177560         1.876941        -0.334883
 H         3.984671        -0.830612        -1.950581
 H         5.344784        -0.455154        -0.909612
 H         3.840499        -2.089880         0.592105
 H         3.943999         0.426314         1.751428
