19
Iteration:  1048
 C        -0.025360         0.010777        -0.143891
 C         1.437628         0.050055        -0.029996
 C         2.153891         1.143004        -0.866006
 C         3.644510         1.005603        -0.391400
 C         4.194931        -0.401149        -0.972502
 C         3.522657        -1.108226         0.113320
 O         1.972494        -1.262067        -0.166334
 C         3.337667         0.217125         0.950629
 O         1.957664         0.350785         1.384201
 H        -0.445241        -0.818688         0.420058
 H        -0.322227         0.997867         0.091109
 H        -0.276533        -0.041735        -1.227983
 H         2.059214         0.833692        -1.962724
 H         1.617280         2.125922        -0.802829
 H         4.133068         1.912935        -0.375455
 H         4.018935        -0.545680        -2.047077
 H         5.270794        -0.265562        -0.888310
 H         3.611601        -2.145228         0.581919
 H         3.981900         0.343717         1.897511
