19
Iteration:  2716charge 0 multiplicity 1
 C        -0.075804         0.061466        -0.084968
 C         1.485913         0.020369         0.007402
 C         2.176891         1.112786        -0.872480
 C         3.595850         0.950715        -0.355121
 C         4.159263        -0.400468        -0.959780
 C         3.467439        -1.112505         0.154483
 O         2.066654        -1.249676        -0.280217
 C         3.366358         0.270034         0.978868
 O         1.953823         0.354351         1.315953
 H        -0.545897        -0.445083         0.787630
 H        -0.385211         1.199650        -0.151863
 H        -0.155308        -0.435375        -1.094412
 H         1.859005         0.888440        -1.870873
 H         1.580281         1.943153        -0.635965
 H         4.220192         1.843844        -0.683021
 H         3.854897        -0.621697        -1.954325
 H         5.282034        -0.524443        -0.856593
 H         3.761073        -2.013404         0.620186
 H         3.816670         0.485144         1.934985
