19
Iteration:   233charge 0 multiplicity 1
 C        -0.101581        -0.054464        -0.163075
 C         1.471450        -0.025042        -0.000659
 C         2.134109         1.065656        -0.824134
 C         3.706031         0.946840        -0.454077
 C         4.113629        -0.386668        -0.995713
 C         3.448486        -1.065545         0.146579
 O         2.106708        -1.224498        -0.222859
 C         3.317575         0.199866         1.018635
 O         2.010922         0.522817         1.354882
 H        -0.503453        -0.599648         0.617527
 H        -0.436271         1.091622        -0.080758
 H        -0.290530        -0.588056        -1.036918
 H         2.031074         0.859377        -1.889155
 H         1.635845         1.927271        -0.336640
 H         4.163379         2.006990        -0.585658
 H         3.466802        -0.731537        -1.854333
 H         5.176049        -0.414204        -1.232607
 H         3.680257        -2.011063         0.643419
 H         3.849769         0.348132         2.000837
