19
Iteration:   294
 C        -0.160969         0.031029         0.083644
 C         1.406995        -0.005904         0.003479
 C         2.148784         0.989724        -0.964114
 C         3.600379         0.958983        -0.312796
 C         4.327730        -0.339424        -0.885874
 C         3.447647        -1.116993         0.128085
 O         2.013140        -1.212993        -0.413084
 C         3.341802         0.248230         0.979611
 O         2.042625         0.444831         1.284013
 H        -0.588294        -0.769864         0.836830
 H        -0.544774         0.934885         0.365188
 H        -0.665200        -0.144409        -0.911788
 H         2.191490         0.727975        -2.016929
 H         1.655329         1.963083        -0.962204
 H         4.199985         1.801788        -0.378959
 H         4.214419        -0.738877        -1.895153
 H         5.385149        -0.276043        -0.638803
 H         3.611078        -2.121804         0.535818
 H         4.025571         0.554522         1.827960
