19
Iteration:  1099charge 0 multiplicity 1
 C        -0.065077        -0.080719         0.059770
 C         1.419192         0.119741         0.004078
 C         2.191413         1.221362        -1.032008
 C         3.643596         0.917588        -0.480145
 C         4.389864        -0.399754        -0.866862
 C         3.344784        -1.074653         0.152191
 O         2.009053        -1.188837        -0.302356
 C         3.307898         0.152506         0.987283
 O         1.944762         0.356856         1.287255
 H        -0.167434        -0.996867         0.589004
 H        -0.503413         0.769883         0.753733
 H        -0.552139        -0.119206        -0.943118
 H         1.965694         1.023635        -2.008981
 H         1.740094         2.245160        -0.793119
 H         4.127146         1.945412        -0.171073
 H         4.240736        -0.696316        -1.950341
 H         5.428778        -0.387745        -0.522350
 H         3.461779        -2.036218         0.563801
 H         3.940196         0.119027         1.910611
