19
Iteration:   456
 C        -0.077827         0.075438         0.050124
 C         1.515077         0.048876         0.013705
 C         2.209928         1.033318        -0.955310
 C         3.654209         1.035189        -0.419696
 C         4.193342        -0.224773        -0.879158
 C         3.383605        -1.192256         0.129378
 O         1.948864        -1.285458        -0.348565
 C         3.305181         0.254627         0.969303
 O         2.007371         0.308291         1.322418
 H        -0.418661        -0.631359         0.974721
 H        -0.554208         0.961932         0.123571
 H        -0.347580        -0.370165        -0.963079
 H         2.040543         0.746355        -1.995006
 H         1.828469         2.037706        -0.804927
 H         4.222161         1.906807        -0.536166
 H         4.338701        -0.356410        -1.964286
 H         5.281069        -0.255713        -0.454566
 H         3.760633        -2.295471         0.426389
 H         4.065729         0.350135         1.795442
