19
Iteration:  4001
 C        -0.037923         0.113130         0.083700
 C         1.418998        -0.005928        -0.070699
 C         2.186946         1.050480        -0.939960
 C         3.584401         0.972231        -0.366938
 C         4.328016        -0.342971        -0.950871
 C         3.402934        -1.033585         0.143996
 O         2.082162        -1.227202        -0.380932
 C         3.270395         0.240963         0.975737
 O         1.929320         0.248401         1.332447
 H        -0.569205        -0.644959         0.783406
 H        -0.218148         1.075822         0.631324
 H        -0.675006         0.080169        -0.791434
 H         2.178145         0.700482        -2.034662
 H         1.768394         2.159759        -0.732372
 H         4.216494         1.849223        -0.334682
 H         4.077419        -0.660000        -1.992458
 H         5.290490        -0.420383        -0.582391
 H         3.737687        -2.046023         0.558137
 H         3.888113         0.455812         1.849567
