19
Iteration:  3828charge 0 multiplicity 1
 C        -0.053648        -0.035145        -0.001162
 C         1.461259         0.057154        -0.019916
 C         2.117285         1.233370        -0.849707
 C         3.647040         0.938224        -0.392513
 C         4.215706        -0.463814        -0.919732
 C         3.478713        -1.102618         0.130278
 O         2.021731        -1.211037        -0.306759
 C         3.309425         0.242638         1.013933
 O         1.958026         0.334446         1.220972
 H        -0.208254        -1.077497         0.552246
 H        -0.599251         0.852625         0.447547
 H        -0.474657        -0.158944        -0.988779
 H         2.065109         1.239817        -1.941492
 H         2.099891         2.217969        -0.601991
 H         4.199466         1.911353        -0.357557
 H         3.925656        -0.727818        -2.058347
 H         5.331300        -0.412774        -0.730303
 H         3.765949        -2.014653         0.680549
 H         3.830421         0.581085         1.917343
