19
Iteration:  4377charge 0 multiplicity 1
 C        -0.090945         0.038502        -0.051795
 C         1.392866         0.075093         0.106172
 C         2.109013         1.106375        -0.877475
 C         3.646119         0.962394        -0.442510
 C         4.303753        -0.362073        -0.899425
 C         3.367120        -1.152677         0.106263
 O         2.089432        -1.235536        -0.334754
 C         3.356345         0.211009         0.921999
 O         1.934100         0.369266         1.332371
 H        -0.349130        -0.879275         0.517417
 H        -0.317563         1.022701         0.376081
 H        -0.229685        -0.007629        -1.093669
 H         2.115169         0.883564        -1.943581
 H         1.728012         2.194090        -0.680094
 H         4.134478         1.911739        -0.345607
 H         4.225248        -0.895564        -2.003637
 H         5.342871        -0.456015        -0.517188
 H         3.663300        -2.043623         0.635987
 H         4.018539         0.412341         1.816792
