19
Iteration:  4414charge 0 multiplicity 1
 C        -0.025073        -0.059681         0.085266
 C         1.475995         0.139914        -0.032578
 C         2.203312         1.116777        -0.941398
 C         3.644683         0.984043        -0.321082
 C         4.310067        -0.376611        -0.899516
 C         3.328134        -1.155352         0.093853
 O         1.998755        -1.223217        -0.329324
 C         3.327927         0.178504         0.959645
 O         1.900814         0.411355         1.253276
 H        -0.300490        -0.795275         0.865544
 H        -0.560145         0.875534         0.392973
 H        -0.662318        -0.395914        -0.803673
 H         2.216770         0.878475        -2.069882
 H         1.796761         2.154298        -0.814915
 H         4.248204         1.939805        -0.267406
 H         4.365575        -0.511126        -1.931033
 H         5.357078        -0.458692        -0.522886
 H         3.745187        -2.172371         0.312083
 H         3.938181         0.372018         1.806256
