19
Iteration:  4244charge 0 multiplicity 1
 C        -0.065514         0.024416         0.016350
 C         1.408323         0.026473        -0.023252
 C         2.202059         1.161352        -0.940253
 C         3.637601         0.997392        -0.288097
 C         4.280971        -0.341740        -0.940604
 C         3.382661        -1.152601         0.066879
 O         2.003095        -1.295524        -0.255422
 C         3.366758         0.213366         1.012533
 O         1.965775         0.373174         1.237570
 H        -0.494796        -0.534794         0.785256
 H        -0.517941         0.971905         0.251453
 H        -0.422496        -0.333623        -0.963874
 H         2.219552         0.863754        -2.021340
 H         1.536764         2.099855        -0.856824
 H         4.107384         1.925106        -0.218896
 H         4.122220        -0.397667        -2.080992
 H         5.319509        -0.338097        -0.698630
 H         3.714833        -2.071535         0.526407
 H         4.081613         0.251369         1.804936
