19
Iteration:  4452charge 0 multiplicity 1
 C        -0.095255         0.022238        -0.126104
 C         1.444989         0.070322        -0.033587
 C         2.165503         1.152078        -0.840282
 C         3.600189         0.948821        -0.349591
 C         4.210822        -0.391769        -0.963654
 C         3.450531        -1.189905         0.109271
 O         2.051071        -1.199718        -0.248047
 C         3.411331         0.268875         1.000078
 O         1.952744         0.329823         1.284129
 H        -0.330461        -0.501249         0.808168
 H        -0.411961         1.050900         0.032054
 H        -0.275071        -0.415513        -1.060006
 H         1.832952         0.877524        -1.767242
 H         1.591148         1.974598        -0.500429
 H         4.155303         1.854092        -0.312037
 H         3.930039        -0.489646        -2.050370
 H         5.220516        -0.573986        -0.663606
 H         3.565016        -2.106664         0.624926
 H         4.129359         0.505526         1.840013
