19
Iteration:  3022
 C        -0.102932        -0.011965         0.002920
 C         1.424531         0.106523         0.003219
 C         2.168629         1.096587        -0.979927
 C         3.664827         0.946481        -0.408697
 C         4.320940        -0.332165        -0.887452
 C         3.406126        -1.130065         0.108198
 O         1.995014        -1.158462        -0.325840
 C         3.309907         0.185142         0.995014
 O         1.956273         0.306720         1.337859
 H        -0.534428        -0.837079         0.639346
 H        -0.423148         0.870732         0.513479
 H        -0.544963         0.048543        -1.002354
 H         2.022243         0.843491        -2.048374
 H         1.757560         2.228000        -0.814561
 H         4.308531         1.824227        -0.378827
 H         4.523689        -0.606954        -1.923300
 H         5.272893        -0.410568        -0.255312
 H         3.757305        -2.096263         0.304099
 H         4.054246         0.263069         1.856611
