19
Iteration:  2215charge 0 multiplicity 1
 C        -0.030016         0.083902         0.066734
 C         1.363765         0.043427        -0.109529
 C         2.171282         0.969555        -1.030445
 C         3.598147         0.942688        -0.312159
 C         4.336345        -0.250904        -0.896064
 C         3.401580        -1.115101         0.086441
 O         2.009533        -1.235549        -0.322927
 C         3.360537         0.196354         1.004324
 O         1.948813         0.341329         1.341607
 H        -0.453821        -0.666967         0.798950
 H        -0.177354         1.027362         0.544837
 H        -0.576421         0.009858        -0.836088
 H         2.048898         0.691479        -2.107730
 H         1.725745         1.974566        -0.967469
 H         4.143599         1.980539        -0.298409
 H         4.243195        -0.373165        -1.962480
 H         5.474661        -0.357911        -0.701042
 H         3.509794        -1.990135         0.677002
 H         4.029071         0.394047         1.923197
