19
Iteration:  2554
 C        -0.070252        -0.016919        -0.151437
 C         1.361965         0.019600         0.055842
 C         2.165186         1.194173        -0.835585
 C         3.642175         0.901881        -0.425519
 C         4.186052        -0.390753        -1.033226
 C         3.506025        -1.103580         0.198542
 O         2.072647        -1.237327        -0.251483
 C         3.336748         0.273654         0.935870
 O         1.972934         0.368034         1.394720
 H        -0.533359        -0.448818         0.707214
 H        -0.494022         1.009993        -0.285392
 H        -0.315582        -0.487936        -1.122710
 H         1.790297         1.072338        -1.924542
 H         1.746442         2.208421        -0.508617
 H         4.244035         1.882713        -0.551736
 H         3.825478        -0.852195        -1.911857
 H         5.287556        -0.539593        -0.956537
 H         3.917457        -2.006586         0.629428
 H         3.993042         0.358733         1.790719
