19
Iteration:  1054charge 0 multiplicity 1
 C        -0.004178        -0.016056        -0.119433
 C         1.451268         0.058053        -0.042080
 C         2.140830         1.131764        -0.883654
 C         3.645555         1.017828        -0.364964
 C         4.186066        -0.363566        -0.973147
 C         3.447842        -1.101621         0.169724
 O         1.983132        -1.282292        -0.221729
 C         3.340321         0.191531         0.978091
 O         1.989112         0.372165         1.351630
 H        -0.580324        -0.821930         0.379673
 H        -0.524705         0.940628         0.272811
 H        -0.217753        -0.091179        -1.183313
 H         2.102132         0.915674        -1.931328
 H         1.749726         2.157859        -0.745674
 H         4.354684         1.945029        -0.545791
 H         3.815186        -0.587904        -2.003419
 H         5.289939        -0.454494        -0.871763
 H         3.714671        -2.010003         0.656463
 H         3.970940         0.376395         1.811061
