19
Iteration:  3246
 C        -0.085434        -0.074738        -0.129692
 C         1.466534         0.137764         0.028904
 C         2.284164         1.237598        -0.869270
 C         3.652065         0.945799        -0.366511
 C         4.135178        -0.362289        -0.983855
 C         3.315511        -1.144237         0.138272
 O         2.039319        -1.300566        -0.255297
 C         3.387344         0.223320         0.985389
 O         1.982311         0.382944         1.320660
 H        -0.409341        -1.058790         0.188423
 H        -0.682795         0.547804         0.483521
 H        -0.306650        -0.122870        -1.165803
 H         2.214887         1.102517        -2.010717
 H         1.820113         2.110169        -0.332501
 H         4.079764         1.979623        -0.272162
 H         3.837035        -0.421323        -2.092232
 H         5.134479        -0.607381        -0.795077
 H         3.911199        -2.043454         0.484274
 H         3.915603         0.463131         1.914292
