19
Iteration:   196
 C        -0.096125         0.082030         0.008627
 C         1.430132         0.036126        -0.025718
 C         2.121327         1.057299        -0.980203
 C         3.615142         1.057325        -0.517779
 C         4.287001        -0.297755        -0.853155
 C         3.415808        -1.124849         0.124415
 O         1.994299        -1.300670        -0.170617
 C         3.329247         0.195860         0.945559
 O         2.041355         0.356713         1.302769
 H        -0.431966        -0.713389         0.784958
 H        -0.611406         0.955660         0.142180
 H        -0.412348        -0.331960        -1.007425
 H         1.998711         0.793657        -2.029217
 H         1.576822         1.998234        -0.879952
 H         4.282932         1.862634        -0.479001
 H         4.433948        -0.585824        -1.879988
 H         5.245966        -0.334454        -0.336931
 H         3.797828        -2.066145         0.449120
 H         4.040731         0.278801         1.787466
