19
Iteration:  1702charge 0 multiplicity 1
 C        -0.032274        -0.081929        -0.003423
 C         1.442651         0.117249         0.008897
 C         2.149234         1.162139        -0.915020
 C         3.707004         0.947821        -0.384969
 C         4.192316        -0.390552        -0.974717
 C         3.420140        -1.142890         0.120105
 O         2.063291        -1.238789        -0.269257
 C         3.269102         0.199153         1.031162
 O         1.955329         0.482102         1.290617
 H        -0.336909        -0.954573         0.531338
 H        -0.643512         0.793471         0.322710
 H        -0.373434        -0.166562        -1.030147
 H         2.029122         0.777316        -1.999306
 H         1.770450         2.236730        -0.775159
 H         4.235399         1.883381        -0.519273
 H         4.044452        -0.765610        -2.026890
 H         5.218716        -0.754340        -0.660069
 H         3.671795        -2.101696         0.523138
 H         4.031661         0.260647         1.795194
