19
Iteration:  3893charge 0 multiplicity 1
 C        -0.090881         0.049860        -0.038665
 C         1.374375         0.035034         0.016956
 C         2.205799         1.094703        -0.907660
 C         3.613577         0.954035        -0.367249
 C         4.260786        -0.265442        -0.952623
 C         3.437997        -1.034760         0.108180
 O         1.966330        -1.295695        -0.268724
 C         3.369731         0.197870         0.962563
 O         2.010819         0.318283         1.310149
 H        -0.485203        -0.514266         0.929192
 H        -0.508541         1.095882         0.064154
 H        -0.405994        -0.472629        -0.949089
 H         2.065416         0.901394        -1.963662
 H         1.815627         1.994582        -0.774650
 H         4.190908         1.885690        -0.474822
 H         4.396426        -0.400830        -2.067333
 H         5.237743        -0.513272        -0.605854
 H         3.845021        -2.000202         0.491862
 H         3.878038         0.110845         1.914532
