19
Iteration:  1317
 C        -0.111891        -0.113529        -0.100115
 C         1.498380         0.141206        -0.053823
 C         2.197741         1.241241        -0.837629
 C         3.627839         0.923176        -0.356823
 C         4.194000        -0.393663        -0.987798
 C         3.433134        -1.131680         0.154494
 O         1.985429        -1.220149        -0.230570
 C         3.373565         0.197546         0.960373
 O         1.994618         0.382597         1.311776
 H        -0.377141        -1.068466         0.445407
 H        -0.684658         0.806707         0.282803
 H        -0.426333        -0.226336        -1.188976
 H         2.070796         1.296756        -1.911435
 H         1.823281         2.222479        -0.329883
 H         4.323423         1.827847        -0.290291
 H         3.826940        -0.835855        -1.983320
 H         5.281302        -0.397444        -0.963333
 H         3.733368        -2.123537         0.432287
 H         3.919332         0.355014         1.949902
