19
Iteration:  2359charge 0 multiplicity 1
 C        -0.061624         0.126082         0.063159
 C         1.453019         0.057760        -0.031843
 C         2.093097         1.045231        -0.899554
 C         3.595531         0.946077        -0.392150
 C         4.320623        -0.318933        -0.903009
 C         3.361354        -1.056518         0.150362
 O         2.128103        -1.265481        -0.399838
 C         3.292760         0.217487         0.998223
 O         1.958598         0.259767         1.288972
 H        -0.410656        -0.202768         0.984953
 H        -0.394667         1.184218         0.193734
 H        -0.724806        -0.363325        -0.661687
 H         1.951120         0.733655        -1.970729
 H         1.662953         2.058140        -0.964285
 H         4.194225         1.924763        -0.407794
 H         4.192200        -0.738047        -1.907959
 H         5.442310        -0.317548        -0.621394
 H         3.782206        -1.934757         0.644309
 H         3.985291         0.360314         1.742062
