19
Iteration:  3006charge 0 multiplicity 1
 C        -0.074723        -0.021327        -0.067416
 C         1.407055         0.132754         0.079334
 C         2.146489         1.166648        -0.810804
 C         3.582644         0.960335        -0.402014
 C         4.358797        -0.460230        -0.879727
 C         3.378632        -1.117902         0.075699
 O         2.040860        -1.157603        -0.355017
 C         3.359991         0.159817         0.924358
 O         1.972720         0.373239         1.338424
 H        -0.180984        -0.993825         0.342572
 H        -0.764340         0.845640         0.187904
 H        -0.227327        -0.244039        -1.131264
 H         1.993991         0.750350        -1.816426
 H         1.752426         2.098071        -0.800010
 H         4.050440         1.984953        -0.391408
 H         4.097991        -0.777254        -1.893536
 H         5.388200        -0.385762        -0.670389
 H         3.475357        -2.049689         0.751398
 H         4.014325         0.311174         1.739490
