19
Iteration:  4764charge 0 multiplicity 1
 C        -0.105901        -0.077215        -0.140614
 C         1.427882         0.111516        -0.098741
 C         2.222943         1.140300        -0.782937
 C         3.622387         0.993450        -0.389339
 C         4.248505        -0.356498        -0.972220
 C         3.395268        -1.111757         0.126863
 O         1.980939        -1.231194        -0.238615
 C         3.371456         0.193324         0.995228
 O         2.014112         0.390178         1.333045
 H        -0.390405        -0.855505         0.537558
 H        -0.480050         0.792254         0.416268
 H        -0.495243        -0.347068        -1.139401
 H         1.843244         0.862545        -1.834890
 H         1.843814         2.093015        -0.463299
 H         4.276769         1.863673        -0.297367
 H         3.936842        -0.577029        -1.962196
 H         5.271364        -0.500090        -0.927184
 H         3.723582        -2.083008         0.550456
 H         4.082411         0.319919         1.835181
