19
Iteration:  2921charge 0 multiplicity 1
 C        -0.063539         0.085242        -0.024693
 C         1.388944         0.058385        -0.002529
 C         2.115963         1.055606        -0.963135
 C         3.581546         0.923604        -0.389597
 C         4.362312        -0.327918        -0.863853
 C         3.402106        -1.083526         0.104234
 O         2.013177        -1.171949        -0.371282
 C         3.348867         0.179078         1.002859
 O         2.005169         0.292833         1.361099
 H        -0.421147        -0.419228         0.890759
 H        -0.526815         1.119470         0.087884
 H        -0.420593        -0.501771        -0.885691
 H         1.869303         0.659920        -1.994036
 H         1.555824         2.131986        -0.839905
 H         4.119862         1.890406        -0.336312
 H         4.416879        -0.678105        -1.869688
 H         5.446236        -0.265088        -0.463029
 H         3.600621        -2.066542         0.606458
 H         4.154591         0.333981         1.689195
