19
Iteration:  2722
 C        -0.060026         0.061576        -0.059348
 C         1.463064         0.036717         0.030277
 C         2.135806         1.104660        -0.860260
 C         3.648554         0.969109        -0.418472
 C         4.232033        -0.362367        -0.934309
 C         3.433351        -1.105684         0.198943
 O         2.052443        -1.271824        -0.324447
 C         3.313971         0.258379         0.959946
 O         1.971039         0.357954         1.325911
 H        -0.575002        -0.503611         0.696484
 H        -0.513755         0.981101        -0.298043
 H        -0.383211        -0.418804        -0.978264
 H         1.884596         0.852900        -1.934811
 H         1.780265         2.177364        -0.539209
 H         4.302362         1.807651        -0.545150
 H         3.782147        -0.802988        -1.891532
 H         5.300604        -0.543887        -0.838865
 H         3.792136        -2.126540         0.570977
 H         3.979012         0.476536         1.821747
