19
Iteration:  1656charge 0 multiplicity 1
 C        -0.071277         0.031357         0.070150
 C         1.442401         0.072429         0.018500
 C         2.095968         1.079114        -0.945222
 C         3.596778         0.934614        -0.435411
 C         4.346318        -0.366852        -0.829789
 C         3.355244        -1.164394         0.089912
 O         2.086552        -1.243985        -0.378843
 C         3.346876         0.214469         0.954963
 O         1.945953         0.438531         1.289836
 H        -0.494383        -0.844883         0.684481
 H        -0.417445         0.904089         0.559241
 H        -0.700221         0.209634        -0.752615
 H         2.091823         0.707750        -1.963794
 H         1.678998         2.109731        -0.752257
 H         4.326679         1.848955        -0.402716
 H         4.357951        -0.730735        -1.969613
 H         5.367420        -0.345416        -0.400106
 H         3.689336        -2.081526         0.587462
 H         3.954508         0.327458         1.833971
