19
Iteration:   346
 C        -0.042673        -0.004250        -0.101965
 C         1.436098         0.040997         0.067778
 C         2.092052         1.115666        -0.890477
 C         3.646913         0.992405        -0.379150
 C         4.243414        -0.332938        -0.925690
 C         3.392612        -1.129503         0.119413
 O         2.023816        -1.281975        -0.267773
 C         3.400869         0.234276         0.933528
 O         1.997109         0.399319         1.338581
 H        -0.571785        -0.934418         0.317149
 H        -0.487946         0.865954         0.352049
 H        -0.457560        -0.025661        -1.140912
 H         2.004298         0.895650        -1.979196
 H         1.658635         2.088456        -0.657366
 H         4.164084         1.951898        -0.427498
 H         3.909531        -0.607971        -1.930459
 H         5.351712        -0.509336        -0.725429
 H         3.667695        -2.191230         0.575977
 H         4.120923         0.415907         1.690567
