19
Iteration:  2941charge 0 multiplicity 1
 C        -0.086003         0.052284        -0.072780
 C         1.474013         0.013940         0.018647
 C         2.224575         1.068520        -0.870839
 C         3.609335         1.005508        -0.338664
 C         4.227578        -0.282336        -0.948654
 C         3.400026        -1.149888         0.074629
 O         2.013985        -1.282439        -0.280517
 C         3.315115         0.199987         1.021022
 O         1.973794         0.395103         1.328130
 H        -0.618844        -0.438065         0.738775
 H        -0.328963         1.177609        -0.195663
 H        -0.464107        -0.479461        -0.965870
 H         2.255737         0.772920        -1.952272
 H         1.663240         2.036161        -0.699723
 H         4.190684         1.946391        -0.473424
 H         4.067464        -0.466751        -2.011723
 H         5.270306        -0.437537        -0.783885
 H         3.842330        -2.204915         0.290938
 H         4.063202         0.220131         1.781855
