19
Iteration:   134
 C        -0.026060        -0.100728         0.004865
 C         1.470850         0.041728        -0.088270
 C         2.185287         1.141828        -0.947073
 C         3.621040         0.906139        -0.457003
 C         4.236047        -0.404117        -0.926147
 C         3.383705        -1.075898         0.195203
 O         1.981801        -1.203094        -0.206026
 C         3.296720         0.300619         0.947976
 O         1.998505         0.418088         1.316749
 H        -0.211397        -1.052983         0.552882
 H        -0.429064         0.740997         0.554649
 H        -0.486222        -0.203898        -0.990644
 H         2.082991         0.997573        -2.022678
 H         1.772484         2.121287        -0.667297
 H         4.228896         1.810349        -0.503517
 H         4.151150        -0.700916        -2.001625
 H         5.283828        -0.488804        -0.711569
 H         3.534116        -2.065668         0.616361
 H         4.097736         0.517287         1.733484
