19
Iteration:   509
 C        -0.013463        -0.114276        -0.086019
 C         1.502567         0.094542         0.020248
 C         2.166810         1.182712        -0.864202
 C         3.619962         0.960965        -0.416980
 C         4.129051        -0.458136        -0.933157
 C         3.336833        -1.080442         0.124896
 O         2.002060        -1.229301        -0.309960
 C         3.380047         0.361946         1.005615
 O         2.007377         0.362422         1.373700
 H        -0.268578        -1.221951         0.254189
 H        -0.465683         0.722010         0.303852
 H        -0.441976        -0.034140        -1.155116
 H         2.027427         0.885791        -1.937653
 H         1.853470         2.179419        -0.598661
 H         4.290137         1.829976        -0.538204
 H         3.890069        -0.805866        -1.930826
 H         5.228929        -0.541033        -0.680959
 H         3.822097        -2.083728         0.401117
 H         4.171803         0.403026         1.748033
