19
Iteration:  4542
 C        -0.083582        -0.018247         0.088206
 C         1.433049         0.004359        -0.034564
 C         2.174389         1.083593        -0.892858
 C         3.620193         0.982747        -0.373136
 C         4.313515        -0.409897        -0.844890
 C         3.387808        -1.062920         0.084803
 O         2.011631        -1.196341        -0.390988
 C         3.363041         0.237001         0.947939
 O         1.945162         0.380779         1.242747
 H        -0.315602        -0.914213         0.728774
 H        -0.515612         0.905285         0.453203
 H        -0.550869         0.006619        -0.875048
 H         2.179748         0.819887        -1.910950
 H         1.897061         2.110524        -0.489990
 H         4.115393         1.989358        -0.345446
 H         4.248250        -0.760370        -1.982245
 H         5.237892        -0.494506        -0.258922
 H         3.631044        -1.980598         0.612549
 H         3.984016         0.394091         1.808011
