19
Iteration:  1273charge 0 multiplicity 1
 C        -0.082014         0.135626         0.014599
 C         1.402220         0.017061        -0.017881
 C         2.187677         1.044225        -0.926670
 C         3.579916         0.975913        -0.391723
 C         4.302877        -0.302902        -0.921019
 C         3.388194        -1.099270         0.117989
 O         2.014951        -1.249755        -0.300327
 C         3.348192         0.194517         0.993119
 O         1.962631         0.282334         1.315519
 H        -0.364088        -0.834590         0.434989
 H        -0.418686         1.069101         0.623776
 H        -0.477812         0.153770        -1.033580
 H         2.238195         0.709610        -1.945671
 H         1.733454         2.072812        -0.973447
 H         4.238655         1.892303        -0.389018
 H         4.324104        -0.426815        -2.041194
 H         5.335896        -0.313681        -0.622878
 H         3.778803        -1.932104         0.593738
 H         4.162196         0.326207         1.775021
