19
Iteration:  4160charge 0 multiplicity 1
 C        -0.060137        -0.034760         0.056655
 C         1.462056         0.097257         0.000370
 C         2.219590         1.102084        -0.890278
 C         3.646522         0.987070        -0.361013
 C         4.261548        -0.346981        -0.908490
 C         3.404588        -1.139978         0.045737
 O         2.004167        -1.225721        -0.302497
 C         3.315283         0.201042         0.959060
 O         1.914159         0.388616         1.254859
 H        -0.259453        -0.980313         0.632865
 H        -0.499401         0.945741         0.433835
 H        -0.550464        -0.202232        -0.934684
 H         2.103134         0.744111        -1.900536
 H         1.910160         2.153584        -0.833233
 H         4.371551         1.830741        -0.088097
 H         3.944722        -0.459540        -1.918434
 H         5.384795        -0.506178        -0.660189
 H         3.713650        -2.100298         0.403204
 H         3.914206         0.407332         1.883619
