19
Iteration:  1556
 C        -0.058851        -0.045865         0.014657
 C         1.376122         0.116978         0.013883
 C         2.163920         1.112847        -0.894119
 C         3.698151         0.949156        -0.419558
 C         4.328978        -0.377868        -0.882968
 C         3.298576        -1.100818         0.165833
 O         1.987257        -1.216789        -0.405661
 C         3.371291         0.211779         0.957342
 O         1.990569         0.376765         1.359120
 H        -0.475519        -0.683164         0.774422
 H        -0.617038         0.857675        -0.073839
 H        -0.321615        -0.580902        -0.925597
 H         1.910248         0.889168        -1.895608
 H         1.927583         2.203147        -0.659026
 H         4.342798         1.897284        -0.564801
 H         4.181656        -0.733643        -1.970592
 H         5.404635        -0.306617        -0.699915
 H         3.587047        -2.121435         0.516370
 H         3.997816         0.452120         1.867626
