19
Iteration:  4177
 C        -0.039320        -0.069106        -0.030112
 C         1.462992         0.015745        -0.077154
 C         2.177618         1.154712        -0.847025
 C         3.679049         0.959287        -0.409858
 C         4.201622        -0.380107        -0.956825
 C         3.348158        -1.066121         0.146087
 O         2.010093        -1.248132        -0.324218
 C         3.353562         0.244508         1.015358
 O         1.949337         0.394301         1.342009
 H        -0.302712        -0.869458         0.625242
 H        -0.387984         0.796958         0.478843
 H        -0.371524        -0.070153        -1.077836
 H         2.209829         1.356980        -1.975004
 H         1.806769         2.148138        -0.395128
 H         4.242217         1.880501        -0.602924
 H         4.193945        -0.712024        -2.051633
 H         5.250794        -0.579086        -0.881511
 H         3.662535        -2.025592         0.622708
 H         3.860295         0.253419         1.970679
