19
Iteration:   302
 C        -0.164130         0.060343         0.135130
 C         1.395384         0.018514        -0.011121
 C         2.145472         1.015086        -0.959756
 C         3.572802         1.023562        -0.312077
 C         4.374384        -0.343348        -0.867724
 C         3.446142        -1.158740         0.148063
 O         2.053072        -1.280384        -0.399905
 C         3.297634         0.266138         0.918435
 O         2.010728         0.416915         1.244039
 H        -0.738823        -0.697813         0.726938
 H        -0.218696         1.083534         0.517944
 H        -0.537747        -0.057238        -0.909999
 H         2.174021         0.527664        -1.963196
 H         1.780037         2.032680        -0.858339
 H         4.177749         1.936418        -0.221330
 H         3.990788        -0.582199        -1.867957
 H         5.519611        -0.452471        -0.800797
 H         3.825435        -2.207644         0.616866
 H         3.917260         0.479995         1.721784
