19
Iteration:   179
 C        -0.097026        -0.035455         0.105072
 C         1.383321         0.015241         0.006317
 C         2.143984         0.977577        -0.928563
 C         3.610508         0.880962        -0.410727
 C         4.421521        -0.347103        -0.873643
 C         3.431576        -1.069910         0.090244
 O         1.976712        -1.246932        -0.366277
 C         3.351360         0.258762         0.956768
 O         1.942377         0.505696         1.279821
 H        -0.458425        -0.690755         0.844684
 H        -0.203931         1.090080         0.430931
 H        -0.634174        -0.114490        -0.808039
 H         1.986816         0.774356        -2.001328
 H         1.830617         2.040959        -0.800940
 H         3.962375         1.958834        -0.520572
 H         4.448791        -0.669335        -1.955478
 H         5.495480        -0.304790        -0.568172
 H         3.702957        -2.043604         0.611013
 H         3.940416         0.482264         1.884940
