19
Iteration:  4522charge 0 multiplicity 1
 C        -0.034773        -0.034401         0.033766
 C         1.432364         0.083928        -0.073610
 C         2.178603         1.170894        -0.992383
 C         3.684644         0.935883        -0.370192
 C         4.268215        -0.314832        -0.921334
 C         3.414653        -1.175426         0.189534
 O         2.025756        -1.276437        -0.368625
 C         3.255306         0.206666         0.996535
 O         1.939428         0.418959         1.357682
 H        -0.050072        -0.765832         0.799834
 H        -0.379882         0.887886         0.459694
 H        -0.611424        -0.161773        -0.838198
 H         2.192681         0.895785        -2.034952
 H         1.711016         2.078198        -0.644982
 H         4.348879         1.845145        -0.470230
 H         3.908071        -0.438678        -1.989988
 H         5.385506        -0.335308        -0.711833
 H         3.579483        -2.207962         0.438930
 H         3.805879         0.275736         1.900978
