19
Iteration:   766
 C         0.028939        -0.027787        -0.117866
 C         1.528020         0.067241         0.067208
 C         2.058518         1.157587        -0.980472
 C         3.549329         1.007348        -0.402541
 C         4.202420        -0.432525        -0.958086
 C         3.430477        -1.108964         0.109869
 O         2.063465        -1.221636        -0.172857
 C         3.302370         0.136867         1.023268
 O         1.996508         0.410979         1.337029
 H        -0.516432        -0.651114         0.469282
 H        -0.322769         1.061920        -0.064522
 H        -0.303080        -0.075900        -1.189262
 H         1.988719         0.993933        -2.087424
 H         1.596385         2.078448        -0.683247
 H         4.137565         1.933388        -0.536580
 H         4.067804        -0.744422        -2.020698
 H         5.270815        -0.469484        -0.666976
 H         3.692504        -2.134181         0.456253
 H         3.952977         0.206605         1.893840
