19
Iteration:  4356
 C        -0.083391         0.056424        -0.126149
 C         1.501222         0.052534        -0.055900
 C         2.159870         1.106008        -0.909854
 C         3.605472         0.935975        -0.382021
 C         4.169561        -0.359320        -1.004155
 C         3.462769        -1.098501         0.214831
 O         2.030701        -1.246929        -0.257477
 C         3.333514         0.195543         1.063450
 O         1.971832         0.331374         1.341258
 H        -0.395808        -0.816462         0.522653
 H        -0.296833         1.022661         0.391012
 H        -0.318126         0.036305        -1.163999
 H         2.074545         0.930008        -2.010303
 H         1.768218         2.179563        -0.560604
 H         4.170567         1.875500        -0.461785
 H         3.731326        -0.569508        -2.091305
 H         5.242861        -0.293049        -0.925435
 H         3.900247        -2.035161         0.526991
 H         4.016041         0.475141         1.918589
