19
Iteration:  1968charge 0 multiplicity 1
 C        -0.104935        -0.002286         0.007307
 C         1.404714         0.114454        -0.054790
 C         2.155086         1.063244        -0.942019
 C         3.635588         0.962786        -0.387597
 C         4.269431        -0.337753        -0.939352
 C         3.388696        -1.139986         0.088092
 O         2.032842        -1.265149        -0.251045
 C         3.347853         0.225455         1.002311
 O         1.984671         0.369854         1.309005
 H        -0.364904        -0.405312         1.015312
 H        -0.655752         0.891898        -0.005927
 H        -0.623431        -0.439236        -0.774688
 H         2.373946         0.766187        -2.002049
 H         1.871018         2.147451        -0.887723
 H         4.133028         1.838676        -0.215972
 H         4.359648        -0.387571        -2.038189
 H         5.326365        -0.275228        -0.504557
 H         3.855147        -2.086294         0.407699
 H         4.006751         0.465584         1.874573
