19
Iteration:   500
 C        -0.074769        -0.099741        -0.087631
 C         1.453535         0.112795         0.024549
 C         2.199199         1.199798        -0.868982
 C         3.630148         0.931175        -0.464120
 C         4.137305        -0.424807        -0.931945
 C         3.399167        -1.163450         0.132367
 O         2.068604        -1.226294        -0.311329
 C         3.363494         0.287711         1.020843
 O         1.991174         0.402576         1.363599
 H        -0.335229        -1.060893         0.518198
 H        -0.630734         0.557186         0.468441
 H        -0.344752        -0.153368        -1.164185
 H         2.088662         1.192767        -1.948077
 H         1.844124         2.187014        -0.571159
 H         4.216583         1.793250        -0.477622
 H         3.791290        -0.641212        -1.955199
 H         5.257928        -0.522002        -0.938282
 H         3.595451        -2.232661         0.578568
 H         3.988864         0.765560         1.838879
