19
Iteration:  2819
 C        -0.007563         0.105701        -0.133261
 C         1.408109         0.002763         0.007649
 C         2.116660         1.117553        -0.834811
 C         3.555683         0.937468        -0.458143
 C         4.209912        -0.355215        -0.891242
 C         3.420535        -1.107397         0.153911
 O         2.052386        -1.333532        -0.254401
 C         3.374826         0.230508         0.924850
 O         2.018556         0.401972         1.357668
 H        -0.548339        -0.842181         0.178647
 H        -0.401178         1.063010         0.212158
 H        -0.200295         0.146173        -1.240939
 H         1.969528         0.949073        -1.955694
 H         1.533980         2.076414        -0.494733
 H         4.109895         1.868409        -0.386033
 H         4.157251        -0.686475        -1.976304
 H         5.220000        -0.279964        -0.606179
 H         3.812161        -2.102671         0.602053
 H         3.998488         0.358229         1.875903
