19
Iteration:  1513charge 0 multiplicity 1
 C        -0.096628         0.121894         0.081178
 C         1.445172         0.019512        -0.022098
 C         2.248538         1.073964        -0.975719
 C         3.615148         1.013627        -0.376869
 C         4.301947        -0.267048        -0.902727
 C         3.401667        -1.179110         0.144556
 O         2.000605        -1.340965        -0.341453
 C         3.314129         0.232333         1.016576
 O         1.939455         0.341279         1.241726
 H        -0.312580        -0.664697         0.755588
 H        -0.306108         1.079243         0.479957
 H        -0.586168         0.016685        -0.907400
 H         2.169989         0.742939        -1.995306
 H         1.603297         2.052384        -0.815754
 H         4.125184         2.047240        -0.348141
 H         4.076477        -0.371125        -2.032946
 H         5.353316        -0.516404        -0.716209
 H         3.833579        -2.025853         0.717781
 H         3.962998         0.272544         1.958609
