19
Iteration:  1865charge 0 multiplicity 1
 C        -0.040084         0.033912        -0.124742
 C         1.483131        -0.011836         0.034927
 C         2.121809         1.145102        -0.927115
 C         3.605910         1.031670        -0.357687
 C         4.229945        -0.359020        -1.039416
 C         3.415586        -1.105598         0.183606
 O         2.049365        -1.333528        -0.101396
 C         3.319729         0.230039         0.982591
 O         1.958652         0.388811         1.268883
 H        -0.607802        -0.789928         0.230218
 H        -0.351841         1.033509         0.370823
 H        -0.391497         0.100783        -1.214493
 H         2.111503         0.771614        -1.961908
 H         1.671485         2.095411        -0.857012
 H         4.456752         1.849228        -0.274276
 H         3.930841        -0.569444        -2.097258
 H         5.300416        -0.500426        -1.231029
 H         3.843780        -2.028722         0.611236
 H         3.997139         0.404946         1.813228
