19
Iteration:  2011charge 0 multiplicity 1
 C        -0.046279         0.028173        -0.170768
 C         1.478961         0.100495         0.052942
 C         2.132213         1.197833        -0.850785
 C         3.607042         0.922871        -0.378178
 C         4.144970        -0.369896        -1.014559
 C         3.464661        -1.150552         0.165654
 O         2.089516        -1.342648        -0.209830
 C         3.374962         0.255507         0.961941
 O         1.934364         0.385232         1.327897
 H        -0.476169        -0.797805         0.501715
 H        -0.576728         0.929581         0.146473
 H        -0.241246        -0.041496        -1.220140
 H         1.887207         0.957966        -1.928561
 H         1.732816         2.149467        -0.472941
 H         4.146624         1.812813        -0.597669
 H         3.951164        -0.693431        -2.029771
 H         5.258205        -0.445315        -0.830775
 H         3.705708        -2.098713         0.650952
 H         4.077059         0.555234         1.786911
