19
Iteration:  4641
 C        -0.063229        -0.028482        -0.077421
 C         1.456337         0.149478         0.050122
 C         2.103763         1.122578        -0.859582
 C         3.611751         0.979046        -0.397797
 C         4.287222        -0.379895        -0.931934
 C         3.362280        -1.117399         0.152157
 O         1.995791        -1.252024        -0.382044
 C         3.382010         0.194347         1.011078
 O         1.993215         0.362562         1.330638
 H        -0.343074        -0.746050         0.768694
 H        -0.637461         0.939605        -0.003292
 H        -0.193385        -0.537287        -1.111769
 H         2.054622         0.950142        -1.946894
 H         1.882033         2.195589        -0.477374
 H         4.113608         2.014268        -0.417863
 H         3.966437        -0.718448        -2.015770
 H         5.416733        -0.384953        -0.789219
 H         3.915299        -1.965047         0.670052
 H         4.038777         0.273471         1.870346
