19
Iteration:  2293charge 0 multiplicity 1
 C        -0.003548        -0.114774        -0.119799
 C         1.367699         0.071090        -0.033015
 C         2.200343         1.233731        -0.832154
 C         3.640597         0.886538        -0.417977
 C         4.156250        -0.380315        -0.955579
 C         3.382188        -1.124457         0.147504
 O         2.041696        -1.215309        -0.288618
 C         3.343140         0.243759         1.040137
 O         2.018687         0.415816         1.337952
 H        -0.193407        -0.871972         0.609132
 H        -0.615855         0.747167         0.254007
 H        -0.259226        -0.254332        -1.163856
 H         1.915341         1.051908        -1.904125
 H         1.907710         2.198416        -0.444974
 H         4.286064         1.885119        -0.443594
 H         3.811798        -0.699916        -1.936055
 H         5.295477        -0.521951        -1.039395
 H         3.700001        -2.159781         0.475741
 H         3.869781         0.458996         1.941186
