19
Iteration:  1322
 C        -0.082434        -0.123721        -0.096424
 C         1.449057         0.143714        -0.010931
 C         2.217581         1.244334        -0.836739
 C         3.633408         0.970484        -0.369136
 C         4.204741        -0.434775        -0.957992
 C         3.433144        -1.152433         0.140104
 O         1.954339        -1.219212        -0.252550
 C         3.359876         0.228968         0.967519
 O         1.995500         0.367003         1.290602
 H        -0.300462        -1.035639         0.484541
 H        -0.516731         0.791099         0.225704
 H        -0.407879        -0.281986        -1.111195
 H         2.081249         1.417804        -1.925089
 H         1.858362         2.095069        -0.339567
 H         4.311802         1.772146        -0.185631
 H         3.801563        -0.649656        -1.938338
 H         5.300621        -0.565937        -1.170992
 H         3.974614        -2.074030         0.514620
 H         3.835596         0.474705         1.886289
