19
Iteration:   749charge 0 multiplicity 1
 C        -0.079794        -0.036536        -0.047748
 C         1.435506         0.088528        -0.043910
 C         2.174229         1.180588        -0.855304
 C         3.633672         0.903597        -0.436425
 C         4.235444        -0.389607        -0.928524
 C         3.400992        -1.135426         0.200832
 O         2.018687        -1.243165        -0.253311
 C         3.355937         0.261875         0.931502
 O         1.956860         0.396015         1.290297
 H        -0.180905        -1.040779         0.552361
 H        -0.638928         0.764016         0.399118
 H        -0.394833        -0.270008        -1.080938
 H         2.005712         0.979279        -1.957108
 H         1.934735         2.249110        -0.593100
 H         4.274186         1.867081        -0.398856
 H         4.019518        -0.714590        -1.935414
 H         5.327577        -0.412560        -0.729936
 H         3.793341        -2.030280         0.667315
 H         4.097913         0.514326         1.724199
