19
Iteration:  2159charge 0 multiplicity 1
 C        -0.053966        -0.146916        -0.144468
 C         1.404481         0.069138        -0.061449
 C         2.204373         1.177790        -0.782412
 C         3.645676         0.960200        -0.445242
 C         4.174578        -0.397417        -0.943636
 C         3.405030        -1.124989         0.062934
 O         1.971303        -1.165615        -0.242674
 C         3.337693         0.163739         1.026451
 O         2.041329         0.467331         1.374493
 H        -0.285060        -0.743546         0.722021
 H        -0.490820         0.803305        -0.210319
 H        -0.210959        -0.684219        -1.067796
 H         1.959345         0.997902        -1.838660
 H         1.904202         2.228276        -0.461694
 H         4.295537         1.865849        -0.521849
 H         3.947316        -0.713439        -1.973751
 H         5.248257        -0.455934        -0.646880
 H         3.740677        -2.024728         0.509656
 H         3.995425         0.312437         1.921464
