19
Iteration:  3984charge 0 multiplicity 1
 C        -0.137567         0.058152         0.027570
 C         1.496654         0.088975        -0.007900
 C         2.111019         1.073343        -0.954341
 C         3.620255         0.970858        -0.353434
 C         4.257520        -0.283052        -0.857138
 C         3.436730        -1.170613         0.111215
 O         2.013356        -1.223697        -0.321223
 C         3.368744         0.165915         0.997666
 O         1.970427         0.340944         1.255563
 H        -0.385690        -0.770429         0.659744
 H        -0.451246         0.897310         0.652648
 H        -0.493933        -0.092175        -1.022915
 H         2.167828         0.742484        -1.975920
 H         1.732026         2.037657        -0.874750
 H         4.123552         1.990393        -0.426113
 H         4.173117        -0.475552        -1.942683
 H         5.420431        -0.314657        -0.760240
 H         3.858652        -2.141642         0.355443
 H         3.994222         0.233213         1.905233
