19
Iteration:   590
 C        -0.053676        -0.010594         0.038652
 C         1.450435         0.067778        -0.027772
 C         2.144998         1.147705        -0.963522
 C         3.561960         0.969584        -0.414374
 C         4.297998        -0.415439        -0.875394
 C         3.398146        -1.122976         0.135322
 O         2.000184        -1.198270        -0.354678
 C         3.331740         0.214805         0.992489
 O         1.987128         0.356441         1.324866
 H        -0.311855        -0.573237         0.861593
 H        -0.559077         0.990448         0.213927
 H        -0.423495        -0.493987        -0.805145
 H         2.130565         0.827156        -1.978133
 H         1.636342         2.128381        -0.913882
 H         4.290167         1.745252        -0.437694
 H         4.424809        -0.679725        -1.961640
 H         5.300910        -0.360475        -0.434108
 H         3.862923        -2.026456         0.568346
 H         3.990884         0.527791         1.820430
