19
Iteration:  2116
 C        -0.033520         0.065140        -0.061776
 C         1.454041         0.015320        -0.016523
 C         2.160175         1.112009        -0.916937
 C         3.593475         0.932094        -0.385130
 C         4.204190        -0.313795        -0.965069
 C         3.450764        -1.107400         0.140752
 O         2.072032        -1.265043        -0.252065
 C         3.330872         0.197583         1.030838
 O         1.950618         0.370211         1.300270
 H        -0.546516        -0.467072         0.738755
 H        -0.244311         1.093389         0.085433
 H        -0.574671        -0.307618        -0.903419
 H         2.092766         1.016153        -1.988959
 H         1.599325         2.008697        -0.638946
 H         4.222202         1.878235        -0.531001
 H         3.969781        -0.600615        -1.968070
 H         5.283291        -0.381392        -0.714005
 H         3.665048        -2.093574         0.392342
 H         3.975962         0.183423         1.929132
