19
Iteration:   763
 C         0.025678        -0.047669        -0.115700
 C         1.500291         0.105754         0.051992
 C         2.077226         1.170258        -0.997494
 C         3.559542         0.992275        -0.408270
 C         4.204833        -0.443032        -0.930398
 C         3.431380        -1.092712         0.103583
 O         2.076178        -1.226536        -0.172884
 C         3.302364         0.144203         0.992533
 O         1.997783         0.403242         1.336651
 H        -0.532057        -0.746433         0.526115
 H        -0.371604         1.088527         0.067172
 H        -0.310459        -0.093431        -1.126267
 H         1.948897         1.112410        -2.010884
 H         1.503079         2.042142        -0.616079
 H         4.195428         1.784750        -0.414723
 H         4.064089        -0.756844        -1.984877
 H         5.239037        -0.511266        -0.675284
 H         3.686161        -2.110450         0.487013
 H         3.905089         0.241132         1.862734
