19
Iteration:  5000charge 0 multiplicity 1
 C        -0.097030        -0.027571        -0.072170
 C         1.357407         0.166947         0.020562
 C         2.129924         1.179029        -0.827846
 C         3.647690         0.949395        -0.387374
 C         4.294927        -0.383053        -0.936225
 C         3.381878        -1.092923         0.120000
 O         2.045360        -1.207373        -0.305013
 C         3.402058         0.169388         0.960197
 O         1.996951         0.339653         1.324010
 H        -0.571759        -0.828928         0.437944
 H        -0.721465         0.821806         0.087217
 H        -0.180764        -0.426836        -1.156154
 H         2.016310         0.875599        -1.853236
 H         1.808633         2.252117        -0.647842
 H         4.170811         1.834082        -0.510283
 H         4.059216        -0.839150        -1.920593
 H         5.374153        -0.621222        -0.761278
 H         3.831969        -1.942447         0.632419
 H         3.857742         0.056176         1.949104
