19
Iteration:  2102charge 0 multiplicity 1
 C        -0.097258         0.118183         0.064077
 C         1.470836        -0.023313        -0.017505
 C         2.129837         1.079860        -0.917702
 C         3.614795         1.014815        -0.431278
 C         4.270688        -0.378478        -0.855724
 C         3.400854        -1.142670         0.092785
 O         2.057483        -1.302285        -0.349056
 C         3.334343         0.236791         0.999780
 O         1.927809         0.345537         1.279415
 H        -0.510934        -0.532774         0.787372
 H        -0.364304         1.181216         0.319098
 H        -0.328797        -0.130512        -1.018721
 H         1.947677         0.863008        -2.001478
 H         1.901923         2.245457        -0.644016
 H         4.161082         1.901639        -0.301229
 H         4.407656        -0.586907        -2.022421
 H         5.339144        -0.367464        -0.607603
 H         4.018024        -1.924174         0.642332
 H         3.892207         0.612494         1.828310
