19
Iteration:   277charge 0 multiplicity 1
 C        -0.021584        -0.079857         0.010520
 C         1.440341         0.164507        -0.006774
 C         2.160885         1.095924        -0.934069
 C         3.608351         0.956188        -0.513909
 C         4.294561        -0.371121        -0.892755
 C         3.346424        -1.099622         0.108161
 O         2.029974        -1.192286        -0.259267
 C         3.326557         0.185795         0.977548
 O         1.932168         0.387784         1.343590
 H        -0.219629        -0.793402         0.735216
 H        -0.467256         0.993903         0.308832
 H        -0.342582        -0.520834        -0.903541
 H         1.916012         0.675398        -1.930415
 H         1.926112         2.166024        -0.749791
 H         4.219569         1.945328        -0.608098
 H         4.317362        -0.587726        -1.989531
 H         5.295428        -0.515726        -0.431260
 H         3.792515        -2.026845         0.486678
 H         4.018987         0.145198         1.832536
