19
Iteration:  4798
 C        -0.085804         0.008621         0.027271
 C         1.465484         0.072803        -0.045029
 C         2.180357         1.125238        -0.898318
 C         3.608592         1.022318        -0.349393
 C         4.217164        -0.348555        -0.893279
 C         3.399781        -1.124793         0.140900
 O         2.052428        -1.256697        -0.359912
 C         3.316449         0.179705         1.042590
 O         1.996240         0.335620         1.242746
 H        -0.311116        -0.738808         0.807334
 H        -0.354810         1.052183         0.223980
 H        -0.637707        -0.109572        -0.895683
 H         1.938159         0.747252        -1.959670
 H         1.825303         2.140601        -0.853104
 H         4.234846         1.937165        -0.437643
 H         4.031596        -0.634991        -1.864985
 H         5.272067        -0.323166        -0.654739
 H         3.795159        -2.118599         0.382600
 H         3.927182         0.384437         1.911815
