19
Iteration:  4986
 C        -0.156786        -0.049058        -0.056995
 C         1.482190         0.042145         0.007819
 C         2.165594         1.157240        -0.890629
 C         3.644973         0.950107        -0.407511
 C         4.304441        -0.406865        -0.947998
 C         3.439020        -1.123011         0.108416
 O         2.001010        -1.157438        -0.313711
 C         3.310987         0.159927         1.040042
 O         1.976650         0.390210         1.332591
 H        -0.368831        -0.895851         0.686058
 H        -0.523710         0.987840         0.195289
 H        -0.645208        -0.256465        -1.088821
 H         1.991798         1.159340        -1.994511
 H         1.764484         2.189821        -0.540438
 H         4.352165         1.851851        -0.265379
 H         4.230809        -0.569266        -1.954342
 H         5.362190        -0.348137        -0.634602
 H         3.572713        -2.192104         0.379673
 H         4.058083         0.408403         1.762245
