19
Iteration:  1665
 C        -0.125796         0.009079         0.125843
 C         1.407351         0.013125        -0.088334
 C         2.134549         1.110309        -0.961382
 C         3.658591         0.978697        -0.427452
 C         4.304009        -0.453969        -0.813535
 C         3.402183        -1.091323         0.142763
 O         2.037122        -1.205345        -0.378731
 C         3.333059         0.214318         0.992942
 O         1.990370         0.422860         1.257058
 H        -0.364098        -0.951369         0.694004
 H        -0.272596         0.841736         0.767719
 H        -0.580349         0.020783        -0.873231
 H         1.932894         0.847403        -1.923343
 H         1.713677         2.070576        -0.843667
 H         4.312967         1.937579        -0.553731
 H         4.320278        -0.496393        -1.912723
 H         5.288401        -0.383138        -0.442276
 H         3.739253        -2.105114         0.494652
 H         3.824326         0.202693         1.966260
