19
Iteration:  3759charge 0 multiplicity 1
 C        -0.059309         0.025045        -0.002932
 C         1.464428         0.041147        -0.014512
 C         2.161380         1.121700        -0.958033
 C         3.594922         0.940143        -0.355403
 C         4.298860        -0.315149        -0.919802
 C         3.465650        -1.042054         0.096327
 O         2.007809        -1.331011        -0.278157
 C         3.277039         0.204663         0.965043
 O         1.947117         0.372085         1.345822
 H        -0.447873        -0.770125         0.657782
 H        -0.183470         1.153652         0.227552
 H        -0.452370         0.001311        -1.116784
 H         1.991048         0.927026        -2.045308
 H         1.664963         2.101108        -0.770764
 H         4.198798         1.840411        -0.347202
 H         3.977270        -0.655264        -1.978108
 H         5.376103        -0.414596        -0.629568
 H         3.870539        -1.995528         0.495609
 H         4.010792         0.270761         1.783488
