19
Iteration:  1980charge 0 multiplicity 1
 C        -0.112759         0.033359        -0.085223
 C         1.433013         0.016256         0.008535
 C         2.180304         1.044732        -0.935033
 C         3.602223         0.988547        -0.338858
 C         4.247066        -0.308815        -0.951058
 C         3.444821        -1.109521         0.078620
 O         1.999298        -1.213144        -0.229929
 C         3.394553         0.229813         0.972132
 O         1.974496         0.365496         1.372561
 H        -0.556155        -0.527580         0.734685
 H        -0.198619         1.090840        -0.072506
 H        -0.327016        -0.506143        -0.973617
 H         1.940002         0.680267        -1.985570
 H         1.575418         2.035745        -0.876557
 H         4.173166         1.805126        -0.565222
 H         4.154232        -0.630105        -2.047336
 H         5.297639        -0.580582        -0.618243
 H         3.760664        -2.154868         0.385841
 H         4.050808         0.446345         1.838904
