19
Iteration:  3427
 C        -0.034725         0.027258         0.044746
 C         1.425331         0.064455         0.027815
 C         2.206139         1.055092        -0.978337
 C         3.677227         0.949999        -0.352971
 C         4.314244        -0.301165        -0.952779
 C         3.390358        -1.081338         0.095686
 O         1.989960        -1.251893        -0.285334
 C         3.287912         0.224727         0.963199
 O         1.898138         0.358086         1.333595
 H        -0.216814        -0.984259         0.451363
 H        -0.507216         0.987369         0.441966
 H        -0.355716         0.039490        -1.025535
 H         2.132633         0.645061        -1.955750
 H         1.847399         2.042047        -1.024956
 H         4.132709         1.961636        -0.496700
 H         4.139867        -0.463161        -2.032125
 H         5.366643        -0.654282        -0.501866
 H         3.833176        -2.004945         0.466673
 H         3.937050         0.290667         1.824635
