19
Iteration:  3097charge 0 multiplicity 1
 C        -0.026322        -0.067244        -0.163340
 C         1.466688         0.094304         0.090215
 C         2.069568         1.210834        -0.764699
 C         3.623463         0.968279        -0.423144
 C         4.274555        -0.431966        -0.933941
 C         3.308651        -1.102631         0.078234
 O         2.017238        -1.203405        -0.302454
 C         3.363795         0.185283         0.968855
 O         2.021704         0.389333         1.353499
 H        -0.546382        -0.888691         0.448891
 H        -0.530992         0.858317        -0.259609
 H        -0.258346        -0.333784        -1.221924
 H         1.946713         1.116813        -1.833187
 H         1.850833         2.243183        -0.566767
 H         4.444059         1.641996        -0.470631
 H         4.154393        -0.517339        -1.919906
 H         5.277075        -0.657310        -0.511366
 H         3.648620        -2.028979         0.555390
 H         4.146812         0.138912         1.825176
