19
Iteration:  2636
 C        -0.028262        -0.037448         0.132374
 C         1.414562         0.128622         0.001101
 C         2.145994         1.207827        -0.997896
 C         3.575701         0.914330        -0.417396
 C         4.333251        -0.399296        -0.892353
 C         3.345167        -1.141717         0.242417
 O         2.114989        -1.222819        -0.418641
 C         3.329965         0.234704         0.944232
 O         1.914050         0.389766         1.260262
 H        -0.367769        -1.023307         0.514299
 H        -0.373700         0.751256         0.827351
 H        -0.431573        -0.125999        -0.860240
 H         1.984062         0.769159        -1.945606
 H         1.784000         2.209134        -0.809043
 H         4.119652         1.818263        -0.443645
 H         4.230431        -1.001872        -1.861486
 H         5.382374        -0.449481        -0.520194
 H         3.582742        -2.146198         0.727730
 H         3.950997         0.475694         1.831026
