19
Iteration:  1690
 C        -0.047382        -0.072202         0.061815
 C         1.440373         0.124969        -0.011921
 C         2.258355         1.156589        -0.931417
 C         3.634962         0.918957        -0.403814
 C         4.277868        -0.449763        -0.912483
 C         3.338416        -1.122475         0.150817
 O         2.036383        -1.233885        -0.296360
 C         3.330417         0.256225         0.912262
 O         1.879251         0.419406         1.276911
 H        -0.098129        -1.003251         0.661963
 H        -0.361056         0.720474         0.739729
 H        -0.504737        -0.230538        -0.888275
 H         2.096422         0.919008        -2.015295
 H         1.860564         2.217659        -0.811890
 H         4.379678         1.752654        -0.275824
 H         3.994963        -0.414804        -2.014608
 H         5.364237        -0.255372        -0.866427
 H         3.738258        -1.997631         0.622239
 H         3.801349         0.402332         1.857591
