19
Iteration:   747charge 0 multiplicity 1
 C        -0.092251        -0.046425        -0.030983
 C         1.446529         0.080886        -0.038109
 C         2.187254         1.174422        -0.834185
 C         3.640823         0.905516        -0.436476
 C         4.238670        -0.389781        -0.935080
 C         3.402739        -1.133138         0.212775
 O         2.005665        -1.244919        -0.270532
 C         3.353008         0.272538         0.936993
 O         1.953701         0.400401         1.278741
 H        -0.159800        -1.025462         0.523790
 H        -0.656629         0.734625         0.353959
 H        -0.471475        -0.243405        -1.083252
 H         2.044218         0.952717        -1.976239
 H         2.012117         2.237048        -0.600853
 H         4.261314         1.926098        -0.475550
 H         4.025146        -0.694480        -1.958079
 H         5.348093        -0.395803        -0.739590
 H         3.742377        -2.050194         0.684520
 H         4.102151         0.529934         1.726179
