19
Iteration:  4681
 C         0.002621         0.046281         0.120247
 C         1.431937         0.103069        -0.088513
 C         2.183867         1.059643        -0.946571
 C         3.622266         0.959792        -0.333958
 C         4.334454        -0.315988        -0.898837
 C         3.431674        -1.091058         0.054764
 O         1.986581        -1.262992        -0.338535
 C         3.292431         0.173395         1.028446
 O         1.922134         0.368857         1.249036
 H        -0.225370        -0.725290         0.927022
 H        -0.617856         0.957146         0.202690
 H        -0.498588        -0.303531        -0.753824
 H         1.966707         0.927847        -1.977569
 H         1.639511         1.978258        -0.668579
 H         4.221049         1.869702        -0.364709
 H         4.234666        -0.566590        -1.938551
 H         5.390465        -0.304343        -0.516527
 H         3.602530        -2.079990         0.440909
 H         3.878935         0.158044         1.932337
