19
Iteration:  3124
 C        -0.046722        -0.078314        -0.133084
 C         1.487401         0.102409        -0.038522
 C         2.204325         1.184383        -0.764294
 C         3.638672         0.921858        -0.368431
 C         4.181037        -0.363808        -0.994881
 C         3.418229        -1.132990         0.162097
 O         1.986128        -1.175244        -0.296351
 C         3.360087         0.163416         0.999623
 O         1.941487         0.374830         1.335209
 H        -0.238427        -0.709489         0.675802
 H        -0.686147         0.861103        -0.201877
 H        -0.396800        -0.604165        -1.003499
 H         2.069119         1.153296        -1.893276
 H         1.931781         2.295258        -0.447459
 H         4.499658         1.608784        -0.299307
 H         3.778364        -0.421974        -2.120759
 H         5.257396        -0.495802        -0.916139
 H         3.685235        -2.114754         0.600619
 H         4.061786         0.497883         1.722366
