19
Iteration:   378charge 0 multiplicity 1
 C        -0.033463        -0.174055        -0.121033
 C         1.466653         0.106626         0.042814
 C         2.173712         1.199189        -0.880100
 C         3.652657         0.917729        -0.379357
 C         4.194819        -0.365447        -0.993950
 C         3.383673        -1.153947         0.084746
 O         2.009109        -1.134353        -0.239928
 C         3.380631         0.213992         1.034246
 O         1.937619         0.425723         1.359308
 H        -0.301994        -0.978277         0.659650
 H        -0.587523         0.696705         0.203408
 H        -0.257425        -0.532539        -1.164357
 H         2.067226         1.074284        -1.989132
 H         1.932996         2.212262        -0.561149
 H         4.337231         1.758887        -0.587998
 H         3.815017        -0.689194        -1.971292
 H         5.321509        -0.569668        -1.001259
 H         3.627396        -2.267900         0.324687
 H         3.994288         0.538617         1.821132
