19
Iteration:  3524charge 0 multiplicity 1
 C        -0.033991         0.018976        -0.181601
 C         1.438376         0.093211         0.058711
 C         2.119473         1.031096        -0.796485
 C         3.614527         0.962068        -0.410264
 C         4.235628        -0.304001        -1.003005
 C         3.423231        -1.111977         0.054836
 O         1.986077        -1.278620        -0.146796
 C         3.412713         0.152619         0.957563
 O         1.965066         0.431458         1.350696
 H        -0.597354        -0.654634         0.434179
 H        -0.390153         1.095545        -0.315177
 H        -0.139121        -0.347997        -1.201690
 H         2.087562         0.684771        -1.835524
 H         1.698370         2.064992        -0.736116
 H         4.230266         1.888057        -0.352590
 H         4.076991        -0.269111        -2.039248
 H         5.272446        -0.413121        -0.684074
 H         3.659257        -2.068517         0.563864
 H         4.084342         0.295522         1.840763
