19
Iteration:  4376charge 0 multiplicity 1
 C        -0.076945         0.045268        -0.049052
 C         1.386068         0.075376         0.112209
 C         2.111408         1.110507        -0.874470
 C         3.640851         0.958620        -0.439887
 C         4.295890        -0.359849        -0.897765
 C         3.377304        -1.155718         0.100370
 O         2.093466        -1.237031        -0.329613
 C         3.352609         0.219237         0.922555
 O         1.931170         0.364129         1.324556
 H        -0.326735        -0.879432         0.471204
 H        -0.337721         1.039855         0.346841
 H        -0.235070        -0.008184        -1.089706
 H         2.103072         0.879989        -1.921450
 H         1.729760         2.162138        -0.693035
 H         4.128376         1.889889        -0.340095
 H         4.206974        -0.911011        -2.000145
 H         5.356443        -0.478646        -0.559240
 H         3.647668        -2.045350         0.636244
 H         4.006214         0.421790         1.826440
