19
Iteration:  1833charge 0 multiplicity 1
 C        -0.091141        -0.061294        -0.005020
 C         1.463761         0.070150         0.045696
 C         2.110512         1.104550        -0.889245
 C         3.655236         0.958367        -0.485248
 C         4.260710        -0.404808        -0.883560
 C         3.375286        -1.108012         0.220407
 O         2.044075        -1.241294        -0.357331
 C         3.309906         0.235478         1.017391
 O         1.998708         0.427066         1.248644
 H        -0.461853        -0.832209         0.601144
 H        -0.411680         0.892879         0.516710
 H        -0.407644        -0.137833        -1.090350
 H         2.081558         0.890044        -1.983021
 H         1.746856         2.116270        -0.789949
 H         4.435445         1.806863        -0.547445
 H         4.093320        -0.583751        -1.958442
 H         5.351211        -0.220541        -0.618499
 H         3.546554        -2.082445         0.681084
 H         4.051884         0.470213         1.765560
