19
Iteration:  2207
 C        -0.106523         0.115958         0.066405
 C         1.446988         0.036556        -0.089938
 C         2.181317         0.983400        -0.985473
 C         3.635986         0.959601        -0.376527
 C         4.311969        -0.297505        -0.921929
 C         3.390575        -1.098481         0.134269
 O         2.032512        -1.211967        -0.362489
 C         3.328096         0.207636         1.036957
 O         1.919950         0.316983         1.355487
 H        -0.130838        -0.779285         0.730341
 H        -0.323081         1.155140         0.489796
 H        -0.690371        -0.198413        -0.842854
 H         2.137183         0.731644        -2.063897
 H         1.740094         1.935020        -0.857568
 H         4.148591         1.984381        -0.488747
 H         4.107394        -0.684634        -1.908151
 H         5.324484        -0.202882        -0.542947
 H         3.890015        -2.078662         0.455517
 H         4.014961         0.395698         1.857926
