19
Iteration:   406charge 0 multiplicity 1
 C        -0.073014         0.002403         0.020064
 C         1.457168         0.051896        -0.011839
 C         2.189029         1.155867        -0.834287
 C         3.586428         0.969989        -0.372879
 C         4.243700        -0.309156        -0.935445
 C         3.413467        -1.105876         0.146458
 O         2.022963        -1.323109        -0.359017
 C         3.325696         0.187234         0.994229
 O         1.970894         0.376847         1.244682
 H        -0.255101        -0.476679         0.913914
 H        -0.571476         1.069358         0.125462
 H        -0.387292        -0.501574        -0.849296
 H         2.146635         1.077538        -1.918706
 H         1.932453         2.216351        -0.609946
 H         4.174578         1.876093        -0.674326
 H         4.069025        -0.820757        -1.890719
 H         5.287776        -0.391357        -0.766111
 H         3.772458        -1.951811         0.599094
 H         3.939656         0.436290         1.905318
