19
Iteration:  4500
 C        -0.069630        -0.050603        -0.080212
 C         1.400144         0.130809         0.004916
 C         2.198541         1.125624        -0.851903
 C         3.625817         0.909184        -0.305622
 C         4.215819        -0.381042        -0.973337
 C         3.389822        -1.056902         0.110281
 O         2.057819        -1.212941        -0.239081
 C         3.318345         0.230385         0.972973
 O         2.012618         0.354097         1.265849
 H        -0.420258        -0.696462         0.680108
 H        -0.403428         0.942800         0.132284
 H        -0.247466        -0.259513        -1.107342
 H         2.214218         0.770161        -1.877798
 H         1.588285         2.000710        -0.692670
 H         4.179492         1.887457        -0.389850
 H         3.892430        -0.568208        -2.046565
 H         5.291115        -0.584375        -0.693557
 H         3.621385        -2.095670         0.307531
 H         3.935425         0.283979         1.822387
