19
Iteration:  4624charge 0 multiplicity 1
 C        -0.050817        -0.044069        -0.082302
 C         1.520189         0.005285        -0.067529
 C         2.189485         1.193067        -0.801375
 C         3.643835         0.918233        -0.391607
 C         4.127283        -0.360699        -0.962631
 C         3.447345        -1.125017         0.077599
 O         2.067886        -1.180372        -0.217013
 C         3.288872         0.212372         0.972143
 O         1.940223         0.379052         1.321894
 H        -0.530530        -0.659772         0.627587
 H        -0.331454         0.975170         0.071805
 H        -0.257890        -0.420573        -1.064676
 H         1.933021         1.049316        -1.872016
 H         1.685845         2.037074        -0.455931
 H         4.326737         1.735436        -0.370776
 H         4.007696        -0.589150        -1.965858
 H         5.257675        -0.353781        -0.809922
 H         3.559788        -2.120580         0.466125
 H         3.948964         0.404940         1.850704
