19
Iteration:  3304charge 0 multiplicity 1
 C        -0.113943         0.085991         0.061745
 C         1.451403         0.037062        -0.067601
 C         2.156041         1.105965        -0.896695
 C         3.624262         1.035657        -0.372527
 C         4.344327        -0.314900        -0.878347
 C         3.392000        -1.119995         0.166690
 O         2.018416        -1.274651        -0.351660
 C         3.311419         0.175978         0.947028
 O         1.964850         0.268557         1.254138
 H        -0.404996        -0.378707         1.027876
 H        -0.347230         1.132874         0.124516
 H        -0.709024        -0.208487        -0.805744
 H         2.203913         0.830449        -1.919914
 H         1.749702         2.060926        -0.948261
 H         4.138875         1.990453        -0.259890
 H         4.252744        -0.474160        -1.966849
 H         5.467875        -0.399516        -0.714287
 H         3.810032        -2.051508         0.657968
 H         3.840451         0.344508         1.920644
