19
Iteration:   358charge 0 multiplicity 1
 C        -0.132189        -0.051760        -0.119356
 C         1.424982         0.130004         0.082565
 C         2.142167         1.089380        -0.797171
 C         3.625247         0.961339        -0.372887
 C         4.209838        -0.385678        -1.000435
 C         3.382319        -1.069211         0.127064
 O         2.066177        -1.280677        -0.304764
 C         3.363294         0.170081         0.937161
 O         2.015940         0.495207         1.338218
 H        -0.314299        -1.069418         0.449211
 H        -0.731258         0.684692         0.204287
 H        -0.028138        -0.120753        -1.238172
 H         1.945265         0.843268        -1.848858
 H         1.717000         2.073317        -0.632680
 H         4.297985         1.747122        -0.283862
 H         4.037058        -0.621850        -2.054841
 H         5.339918        -0.418429        -0.909681
 H         3.953365        -1.930900         0.746027
 H         4.001982         0.083435         1.837139
