19
Iteration:  1939
 C        -0.028452        -0.116723         0.140905
 C         1.458754         0.046147        -0.079679
 C         2.115603         1.098686        -0.923807
 C         3.693337         0.952043        -0.401319
 C         4.272080        -0.437465        -0.847631
 C         3.390358        -1.094118         0.154915
 O         2.024749        -1.183851        -0.431632
 C         3.305885         0.264302         0.980146
 O         1.922794         0.435119         1.261387
 H        -0.212280        -0.483000         1.145450
 H        -0.417498         0.995198         0.136030
 H        -0.708666        -0.569567        -0.656973
 H         2.241824         1.022534        -2.000047
 H         1.740931         2.157339        -0.706068
 H         4.214039         1.997073        -0.273764
 H         4.356392        -0.673831        -1.973772
 H         5.314010        -0.506401        -0.614242
 H         3.603561        -2.138927         0.613729
 H         3.935928         0.451273         1.846515
