19
Iteration:  2970
 C        -0.022766        -0.060546        -0.134883
 C         1.473123         0.106775        -0.073891
 C         2.240142         1.255577        -0.790898
 C         3.656709         1.003054        -0.350603
 C         4.157695        -0.381783        -1.028430
 C         3.427571        -1.131420         0.158117
 O         2.014731        -1.281876        -0.177711
 C         3.285110         0.198353         1.026333
 O         1.932133         0.355646         1.266751
 H        -0.378870        -0.639805         0.722019
 H        -0.542891         0.840449         0.093587
 H        -0.328500        -0.462476        -1.093492
 H         2.206480         1.191705        -1.859344
 H         1.760438         2.119898        -0.460022
 H         4.248976         1.891343        -0.521296
 H         3.765197        -0.646140        -2.083369
 H         5.220487        -0.664351        -1.036717
 H         3.892728        -2.056361         0.445930
 H         4.115592         0.192520         1.788989
