19
Iteration:  4275
 C        -0.104620         0.026567         0.100789
 C         1.449705         0.071008        -0.044150
 C         2.199249         1.113586        -0.867760
 C         3.621782         0.933312        -0.404079
 C         4.308288        -0.386624        -0.830521
 C         3.358440        -1.125484         0.141480
 O         2.056972        -1.215943        -0.429855
 C         3.324592         0.257364         1.000511
 O         1.934878         0.336535         1.256109
 H        -0.239901        -0.637611         0.933840
 H        -0.543050         1.021003         0.179973
 H        -0.486176        -0.507458        -0.822310
 H         2.030007         0.933672        -1.944865
 H         1.725199         2.058911        -0.654797
 H         4.079633         1.894259        -0.627276
 H         4.334860        -0.553363        -2.037346
 H         5.442040        -0.213190        -0.776387
 H         3.566471        -2.062156         0.694275
 H         4.053170         0.284450         1.760569
