19
Iteration:  4126
 C        -0.058259         0.052989         0.020027
 C         1.413662         0.018107         0.026023
 C         2.147137         1.039446        -0.909005
 C         3.615982         0.976372        -0.438051
 C         4.318209        -0.299556        -0.837747
 C         3.411509        -1.115746         0.043732
 O         1.997677        -1.204043        -0.368707
 C         3.339591         0.199544         0.954448
 O         1.971336         0.332175         1.348905
 H        -0.485947        -0.499346         0.871443
 H        -0.366527         1.104135         0.368054
 H        -0.479303        -0.278262        -1.000052
 H         2.053894         0.676217        -1.944217
 H         1.659246         2.088870        -0.785609
 H         4.178784         1.966673        -0.216318
 H         4.332474        -0.547392        -1.864171
 H         5.396088        -0.444519        -0.529095
 H         3.685667        -2.097863         0.357715
 H         3.988217         0.351637         1.826549
