19
Iteration:  1655
 C        -0.064733         0.036357         0.065982
 C         1.445968         0.084226         0.031177
 C         2.095590         1.073596        -0.945042
 C         3.589810         0.925001        -0.432307
 C         4.350890        -0.351723        -0.838576
 C         3.358944        -1.169000         0.087884
 O         2.085967        -1.248404        -0.378099
 C         3.340890         0.214034         0.950283
 O         1.941588         0.436827         1.291637
 H        -0.507816        -0.833441         0.670896
 H        -0.415096         0.902292         0.554694
 H        -0.702413         0.197121        -0.778047
 H         2.106404         0.738308        -1.923665
 H         1.695295         2.070096        -0.764103
 H         4.304633         1.859913        -0.392224
 H         4.370827        -0.764717        -1.939054
 H         5.346859        -0.361600        -0.413261
 H         3.672131        -2.102450         0.610514
 H         4.002242         0.356650         1.801991
