19
Iteration:  1287
 C        -0.013082         0.027220        -0.068023
 C         1.512626         0.085944         0.068318
 C         2.132060         1.050453        -0.893016
 C         3.641818         0.961563        -0.354771
 C         4.283258        -0.333951        -0.934096
 C         3.397086        -1.107367         0.088841
 O         1.961755        -1.253582        -0.338643
 C         3.334332         0.256122         0.942903
 O         1.975163         0.357637         1.372324
 H        -0.597583        -0.898460         0.310811
 H        -0.526005         0.793779         0.427819
 H        -0.174688         0.183637        -1.151142
 H         1.912208         0.739932        -1.857036
 H         1.757274         2.002482        -0.683040
 H         4.076031         1.958741        -0.338945
 H         3.960760        -0.755423        -1.887443
 H         5.317594        -0.430479        -0.670980
 H         3.587248        -2.099514         0.354712
 H         3.964428         0.387478         1.841067
