19
Iteration:  2557
 C        -0.054363        -0.007267        -0.157622
 C         1.372369         0.008763         0.058139
 C         2.150518         1.188028        -0.851123
 C         3.642548         0.905643        -0.428256
 C         4.196607        -0.368226        -1.034262
 C         3.507454        -1.083714         0.199079
 O         2.051222        -1.238138        -0.255428
 C         3.316231         0.268986         0.948532
 O         2.006295         0.372422         1.406889
 H        -0.649352        -0.489076         0.604946
 H        -0.424795         0.939238        -0.292340
 H        -0.366086        -0.471990        -1.065881
 H         1.853478         0.972149        -1.878519
 H         1.733443         2.147007        -0.505243
 H         4.261139         1.734223        -0.586194
 H         3.788856        -0.826156        -2.000678
 H         5.250056        -0.562379        -0.961501
 H         3.885399        -2.057895         0.639611
 H         3.898450         0.348143         1.900375
