19
Iteration:  1293charge 0 multiplicity 1
 C        -0.029369        -0.028268        -0.112995
 C         1.482332         0.092636         0.086794
 C         2.140812         1.061067        -0.854409
 C         3.618378         0.977956        -0.406074
 C         4.247142        -0.377759        -0.920597
 C         3.396200        -1.114328         0.085778
 O         1.982437        -1.221500        -0.329320
 C         3.337668         0.205588         0.969889
 O         1.996315         0.395306         1.370703
 H        -0.469529        -0.901160         0.263683
 H        -0.429306         0.915128         0.462110
 H        -0.256635         0.152586        -1.177424
 H         1.960156         0.833873        -1.970295
 H         1.712557         2.121030        -0.606499
 H         4.189614         1.943124        -0.361004
 H         3.994535        -0.512579        -2.014819
 H         5.335105        -0.533940        -0.713406
 H         3.826693        -2.136347         0.441958
 H         3.881254         0.360059         1.920335
