19
Iteration:  1685charge 0 multiplicity 1
 C        -0.039541        -0.077909         0.099405
 C         1.446742         0.119327        -0.050578
 C         2.259173         1.132746        -0.947774
 C         3.614562         0.920538        -0.409233
 C         4.309740        -0.401015        -0.910991
 C         3.351645        -1.101545         0.172149
 O         1.988065        -1.219618        -0.316666
 C         3.343938         0.248100         0.918442
 O         1.890064         0.390539         1.261333
 H        -0.082506        -1.002780         0.716323
 H        -0.505553         0.727246         0.705736
 H        -0.687561        -0.058927        -0.838961
 H         2.273180         0.957200        -2.022798
 H         1.956983         2.107047        -0.672321
 H         4.331364         1.740570        -0.276594
 H         3.956466        -0.631747        -1.909863
 H         5.395487        -0.338782        -0.778970
 H         3.737724        -2.022314         0.703921
 H         3.856772         0.531800         1.878901
