19
Iteration:  3053charge 0 multiplicity 1
 C        -0.044928         0.103697         0.087924
 C         1.421895         0.041379        -0.021949
 C         2.189737         1.078412        -0.944810
 C         3.725879         0.998550        -0.254286
 C         4.246324        -0.285813        -0.949907
 C         3.434576        -1.146853         0.156473
 O         2.059882        -1.306314        -0.362549
 C         3.264459         0.162831         0.961347
 O         1.878167         0.375876         1.194575
 H        -0.336373        -0.755199         0.768645
 H        -0.050987         1.103003         0.460219
 H        -0.670677         0.224443        -0.820632
 H         2.149034         0.739417        -1.997920
 H         1.415285         1.907502        -0.903337
 H         4.144118         1.976988        -0.041321
 H         4.120003        -0.556974        -1.906164
 H         5.285694        -0.430261        -0.560858
 H         3.863987        -2.105458         0.487377
 H         3.936884         0.180639         1.860609
