19
Iteration:  2081
 C        -0.127810         0.041038         0.075761
 C         1.382880         0.070046        -0.047578
 C         2.146350         1.043745        -0.973759
 C         3.571433         0.908262        -0.445803
 C         4.394116        -0.327054        -0.826440
 C         3.381485        -1.070649         0.133911
 O         2.030080        -1.182921        -0.341242
 C         3.380843         0.177087         0.963754
 O         1.947820         0.346869         1.299072
 H        -0.144710        -0.750736         0.733059
 H        -0.386530         0.924916         0.678350
 H        -0.535795         0.092943        -0.959044
 H         2.099945         0.681984        -2.011523
 H         1.712787         2.147689        -0.781386
 H         4.205255         1.777507        -0.434029
 H         4.441842        -0.530904        -1.984676
 H         5.450245        -0.272961        -0.522189
 H         3.694752        -2.037081         0.642018
 H         3.981220         0.060036         1.835458
