19
Iteration:  1885
 C        -0.061495         0.001159        -0.151940
 C         1.460335         0.078364         0.023927
 C         2.179301         0.977998        -0.878913
 C         3.607847         0.976802        -0.412618
 C         4.131117        -0.328087        -0.926809
 C         3.445543        -1.079203         0.120815
 O         1.993642        -1.319849        -0.183335
 C         3.358884         0.237806         0.983695
 O         2.015465         0.442093         1.332416
 H        -0.456362        -0.908101         0.315706
 H        -0.494785         0.978415         0.272622
 H        -0.297927        -0.118662        -1.250136
 H         2.257630         1.008088        -1.909030
 H         1.832097         1.966005        -0.573797
 H         4.097028         2.025314        -0.664156
 H         4.017379        -0.455243        -2.050317
 H         5.186283        -0.393251        -0.782016
 H         3.887854        -2.052874         0.481037
 H         4.087013         0.439196         1.770374
