19
Iteration:  2381
 C        -0.087956        -0.014791         0.043523
 C         1.416037         0.046680        -0.010033
 C         2.144129         1.141031        -0.901899
 C         3.626591         0.950754        -0.409045
 C         4.285953        -0.341971        -0.930994
 C         3.490839        -1.142442         0.150633
 O         2.020826        -1.242834        -0.326073
 C         3.363958         0.201175         0.959882
 O         1.904177         0.375005         1.284865
 H        -0.509243        -0.545730         0.841554
 H        -0.569931         0.973967         0.291647
 H        -0.567178        -0.466362        -0.872120
 H         2.092594         1.298466        -2.015638
 H         2.001997         2.232668        -0.738632
 H         4.288803         1.885148        -0.370916
 H         4.243022        -0.661491        -1.998870
 H         5.389794        -0.384748        -0.562879
 H         3.709384        -2.156325         0.551331
 H         3.965642         0.446506         1.790511
