19
Iteration:  4835
 C        -0.073875         0.024194        -0.051627
 C         1.415538         0.116627         0.077762
 C         2.140667         1.111303        -0.867271
 C         3.675248         0.971234        -0.425213
 C         4.283060        -0.305475        -0.858544
 C         3.396672        -1.152100         0.025563
 O         2.021195        -1.252174        -0.324313
 C         3.335502         0.187752         0.991285
 O         1.962816         0.344520         1.294024
 H        -0.531649        -0.601117         0.774987
 H        -0.401268         0.979162         0.368256
 H        -0.451421        -0.498674        -0.939801
 H         2.099709         0.772103        -1.877086
 H         1.722321         2.170456        -0.792501
 H         4.086893         1.993115        -0.537745
 H         4.426653        -0.706007        -1.948237
 H         5.438442        -0.348530        -0.456584
 H         3.703588        -2.174166         0.290147
 H         3.810245         0.320214         1.981716
