19
Iteration:  2226charge 0 multiplicity 1
 C        -0.081617         0.063134         0.069673
 C         1.503299         0.009049        -0.000864
 C         2.151716         1.041319        -0.986594
 C         3.572323         0.982184        -0.317818
 C         4.349529        -0.267636        -0.876764
 C         3.400000        -1.115588         0.087101
 O         1.978651        -1.282260        -0.283374
 C         3.259045         0.169716         0.921015
 O         1.997071         0.391759         1.249415
 H        -0.613352        -0.713781         0.697673
 H        -0.260524         1.022857         0.507623
 H        -0.488226         0.228370        -0.890929
 H         2.301369         0.499387        -1.946730
 H         1.775736         2.063473        -1.072307
 H         4.034331         2.036750        -0.130277
 H         4.277272        -0.262124        -1.946032
 H         5.429702        -0.487751        -0.509458
 H         3.797494        -2.084873         0.379534
 H         4.001916         0.182253         1.787108
