19
Iteration:  1366charge 0 multiplicity 1
 C        -0.136510         0.088056         0.011083
 C         1.488565         0.049107        -0.007570
 C         2.101215         1.141230        -0.918446
 C         3.586327         0.929136        -0.325717
 C         4.333239        -0.289583        -0.894847
 C         3.445090        -1.160842         0.100284
 O         2.021292        -1.198582        -0.306882
 C         3.346404         0.135592         0.947838
 O         1.982310         0.339884         1.314001
 H        -0.466230        -0.637085         0.805149
 H        -0.555985         1.102583        -0.115324
 H        -0.403817        -0.503835        -0.853536
 H         1.971451         0.721747        -1.965095
 H         1.846367         2.136642        -0.901342
 H         4.050869         1.890242        -0.339848
 H         4.240951        -0.474516        -1.948976
 H         5.447899        -0.502046        -0.734922
 H         3.563515        -2.300286         0.334381
 H         3.998566         0.421004         1.742564
