19
Iteration:  2730
 C        -0.063929         0.014042        -0.065674
 C         1.398726         0.082576         0.033190
 C         2.113779         1.111594        -0.853737
 C         3.667801         0.962876        -0.515265
 C         4.299918        -0.378123        -0.890693
 C         3.383399        -1.087850         0.197730
 O         2.037121        -1.269581        -0.343028
 C         3.312907         0.218470         0.972205
 O         1.978576         0.370956         1.335235
 H        -0.537612        -0.472628         0.842371
 H        -0.491041         0.992799        -0.080174
 H        -0.422448        -0.637231        -0.880876
 H         2.076047         1.020315        -1.945411
 H         1.999375         2.202320        -0.587290
 H         4.205462         1.861871        -0.257784
 H         4.037235        -0.775707        -1.900905
 H         5.345505        -0.398161        -0.847840
 H         3.744541        -2.048175         0.651407
 H         4.160946         0.374720         1.681759
