19
Iteration:  2024
 C        -0.079886        -0.041637        -0.110558
 C         1.438753         0.001996        -0.047040
 C         2.177256         1.181360        -0.843840
 C         3.610433         0.975167        -0.457719
 C         4.195459        -0.436296        -0.941137
 C         3.433530        -1.128009         0.129237
 O         2.042251        -1.211021        -0.166305
 C         3.337343         0.256980         1.013712
 O         1.985103         0.396658         1.298419
 H        -0.475201        -0.987561         0.266694
 H        -0.391539         0.897053         0.405144
 H        -0.370971        -0.139207        -1.158518
 H         2.118001         1.284983        -1.981317
 H         1.789693         2.251613        -0.518211
 H         4.319136         1.702635        -0.310265
 H         3.728135        -0.712505        -1.976954
 H         5.307190        -0.455447        -0.989532
 H         3.973905        -2.099529         0.394116
 H         3.931212         0.399301         1.933195
