19
Iteration:    56
 C        -0.132814        -0.036336         0.076964
 C         1.390247         0.075206        -0.015744
 C         2.181443         1.079046        -0.952377
 C         3.612333         0.900427        -0.427999
 C         4.289758        -0.387980        -0.950833
 C         3.487534        -1.147389         0.163526
 O         2.091913        -1.308279        -0.284521
 C         3.313421         0.254021         0.938340
 O         1.936219         0.554756         1.281721
 H        -0.329506        -0.512772         1.081044
 H        -0.544417         0.911368         0.117359
 H        -0.635489        -0.624766        -0.731866
 H         2.065194         0.981549        -2.014485
 H         1.794624         2.054343        -0.644531
 H         4.150054         1.810486        -0.334016
 H         4.063218        -0.627851        -2.012588
 H         5.331713        -0.386768        -0.718514
 H         3.680337        -2.044231         0.618154
 H         3.995507         0.478946         1.782159
