19
Iteration:  1084charge 0 multiplicity 1
 C        -0.040088        -0.103467         0.030703
 C         1.439008         0.101250        -0.087156
 C         2.172787         1.162161        -0.863183
 C         3.659679         0.942160        -0.348245
 C         4.278334        -0.422591        -0.954814
 C         3.421819        -1.154977         0.152979
 O         2.017540        -1.178091        -0.336697
 C         3.284206         0.212922         0.995995
 O         1.918197         0.469458         1.287935
 H        -0.369178        -1.132360         0.533758
 H        -0.505372         0.694125         0.645804
 H        -0.532104        -0.131275        -0.942589
 H         2.189686         0.961583        -2.011350
 H         1.892739         2.169532        -0.658075
 H         4.386884         1.727006        -0.532089
 H         4.045071        -0.755753        -1.959156
 H         5.386123        -0.559546        -0.752824
 H         3.764159        -2.125403         0.611660
 H         3.900177         0.474308         1.812219
