19
Iteration:  2377
 C        -0.121756         0.043203         0.084810
 C         1.398542         0.061194         0.001549
 C         2.170304         1.134480        -0.916281
 C         3.605984         0.978770        -0.431598
 C         4.284424        -0.359516        -0.883597
 C         3.541030        -1.154223         0.145959
 O         2.039024        -1.264684        -0.353271
 C         3.362332         0.217380         0.931409
 O         1.892598         0.338291         1.276838
 H        -0.458660        -0.640588         0.916042
 H        -0.485493         1.059043         0.155567
 H        -0.396770        -0.443866        -0.820896
 H         2.081459         1.144966        -2.046684
 H         1.948189         2.229122        -0.633683
 H         4.214722         1.889110        -0.406932
 H         4.172841        -0.585453        -1.926172
 H         5.354619        -0.389263        -0.576336
 H         3.668384        -2.129967         0.539181
 H         3.824911         0.455181         1.915359
