19
Iteration:  2699charge 0 multiplicity 1
 C         0.015532         0.048489        -0.145355
 C         1.491789         0.032518        -0.024488
 C         2.139271         1.080362        -0.904307
 C         3.583140         0.962598        -0.374316
 C         4.152652        -0.297447        -1.038919
 C         3.412580        -1.104981         0.157550
 O         2.050960        -1.285630        -0.118212
 C         3.332520         0.184487         1.032177
 O         1.964251         0.387156         1.306002
 H        -0.396481        -0.622493         0.602884
 H        -0.330428         1.001934        -0.060148
 H        -0.481999        -0.121454        -1.077844
 H         2.225306         0.880896        -2.018862
 H         1.858511         2.185392        -0.742332
 H         4.160434         1.837955        -0.273610
 H         3.762982        -0.673723        -2.067441
 H         5.212766        -0.376524        -0.938536
 H         3.860079        -2.137517         0.391570
 H         4.077206         0.352490         1.845254
