19
Iteration:  1992
 C        -0.004349         0.063219        -0.130101
 C         1.468281         0.028985         0.099233
 C         2.117029         1.023904        -0.870021
 C         3.610430         0.985647        -0.469631
 C         4.243168        -0.335910        -0.933802
 C         3.395790        -1.062012         0.119617
 O         2.021807        -1.278116        -0.242812
 C         3.315254         0.208574         0.985300
 O         2.011856         0.371605         1.347547
 H        -0.623968        -0.469770         0.544775
 H        -0.589565         0.996198        -0.149878
 H        -0.224478        -0.253031        -1.152631
 H         2.087121         0.705371        -1.947223
 H         1.761261         2.125243        -0.664777
 H         4.044451         1.934369        -0.305656
 H         3.833864        -0.571141        -2.006104
 H         5.342059        -0.252695        -0.921843
 H         3.760654        -2.037409         0.618612
 H         4.048187         0.201371         1.793244
