19
Iteration:   634
 C         0.026769        -0.098683        -0.100742
 C         1.518651         0.076144        -0.053806
 C         2.186863         1.207971        -0.886521
 C         3.640787         1.018783        -0.415069
 C         4.108452        -0.383509        -0.969230
 C         3.341629        -1.131214         0.138837
 O         2.000174        -1.255807        -0.197460
 C         3.347806         0.241218         1.006106
 O         1.984477         0.379001         1.329835
 H        -0.306110        -0.588964         0.742030
 H        -0.508884         0.942444        -0.120935
 H        -0.250829        -0.710921        -0.902616
 H         2.177701         1.004158        -1.938386
 H         1.817182         2.240166        -0.733209
 H         4.261978         1.903817        -0.338167
 H         3.902891        -0.802102        -2.009646
 H         5.175332        -0.468326        -0.749308
 H         3.611158        -2.169011         0.555555
 H         4.035017         0.337642         1.829909
