19
Iteration:  4264charge 0 multiplicity 1
 C        -0.036973         0.022306         0.081895
 C         1.410443         0.061816        -0.089729
 C         2.178237         1.100689        -0.903589
 C         3.635494         0.940592        -0.419725
 C         4.308614        -0.322354        -0.880166
 C         3.451695        -1.119975         0.093669
 O         2.060854        -1.219974        -0.332563
 C         3.242807         0.156230         0.974451
 O         1.904844         0.379233         1.281180
 H        -0.237514        -0.466378         1.010355
 H        -0.390648         1.028383         0.315404
 H        -0.690822        -0.416692        -0.702606
 H         2.119169         1.049424        -2.003392
 H         1.893523         2.098797        -0.569930
 H         4.243458         1.841887        -0.354403
 H         4.090697        -0.694626        -1.997377
 H         5.359825        -0.436062        -0.427499
 H         3.815676        -2.104574         0.466546
 H         3.782230         0.305468         1.879724
