19
Iteration:  2152
 C        -0.068479        -0.183837        -0.147054
 C         1.471154         0.080781         0.022588
 C         2.163508         1.197454        -0.856778
 C         3.732116         0.961530        -0.375790
 C         4.128276        -0.378144        -0.982202
 C         3.309152        -1.109515         0.074958
 O         2.000061        -1.191338        -0.236940
 C         3.349907         0.187702         1.027244
 O         2.017025         0.440951         1.381408
 H        -0.540322        -0.690136         0.769660
 H        -0.484542         0.846197        -0.309812
 H        -0.140345        -0.563881        -1.167644
 H         2.141155         0.982832        -1.939259
 H         1.985997         2.168880        -0.564216
 H         4.359859         1.881826        -0.700953
 H         4.005375        -0.726566        -1.982441
 H         5.209729        -0.440633        -0.766638
 H         3.875827        -2.020054         0.365477
 H         4.004584         0.325925         1.922050
