19
Iteration:   735
 C        -0.132636        -0.144978         0.046751
 C         1.432427         0.063211         0.004916
 C         2.287559         1.063762        -0.838859
 C         3.707821         0.965340        -0.426650
 C         4.271490        -0.425623        -0.939653
 C         3.399106        -1.056012         0.191837
 O         1.963699        -1.216427        -0.395548
 C         3.332938         0.300701         1.023229
 O         1.959518         0.460733         1.242872
 H        -0.513153        -1.005975         0.608837
 H        -0.504693         0.671740         0.614146
 H        -0.612939        -0.161092        -0.986038
 H         2.207300         1.032081        -2.015447
 H         1.848798         2.025841        -0.519642
 H         4.278400         1.918258        -0.871776
 H         4.035484        -0.662641        -1.989934
 H         5.386901        -0.509391        -0.799643
 H         3.454259        -2.006971         0.713083
 H         3.787996         0.422507         2.031093
