19
Iteration:  4477charge 0 multiplicity 1
 C        -0.063200        -0.005392        -0.176253
 C         1.416468         0.066737         0.074837
 C         2.241093         1.157240        -0.863773
 C         3.581235         0.986779        -0.488296
 C         4.247617        -0.325155        -0.945428
 C         3.454169        -1.099667         0.124387
 O         1.948468        -1.312985        -0.271968
 C         3.393494         0.162284         0.994054
 O         1.964398         0.400929         1.421898
 H        -0.582165        -0.560182         0.574407
 H        -0.361317         1.011092        -0.107544
 H         0.028093        -0.341410        -1.166541
 H         1.851201         1.039904        -1.843101
 H         1.673443         1.942880        -0.345541
 H         4.109893         1.976403        -0.568687
 H         3.961312        -0.718474        -2.037247
 H         5.306858        -0.389876        -0.621843
 H         3.651031        -2.075170         0.513776
 H         4.225904         0.218877         1.659466
