19
Iteration:  3171
 C        -0.064562         0.112414         0.019042
 C         1.414965         0.037969        -0.041395
 C         2.097942         1.026896        -0.910412
 C         3.594853         0.918864        -0.323668
 C         4.414495        -0.274599        -0.866601
 C         3.345785        -1.118324         0.014199
 O         2.031744        -1.207766        -0.313889
 C         3.325378         0.147090         0.928291
 O         1.985009         0.314504         1.324384
 H        -0.533312        -0.588456         0.815213
 H        -0.244110         1.188134         0.215207
 H        -0.631219        -0.056158        -0.923318
 H         1.954013         0.729663        -1.976291
 H         1.934610         2.068686        -0.788022
 H         3.988300         1.994029        -0.308699
 H         4.405037        -0.456556        -2.062774
 H         5.436648        -0.100750        -0.380302
 H         3.690421        -2.103360         0.595044
 H         3.907175         0.232914         1.893626
