19
Iteration:   849
 C        -0.116470        -0.152276         0.067538
 C         1.437555         0.096690         0.022879
 C         2.131716         1.138751        -0.935294
 C         3.719023         0.975742        -0.427795
 C         4.345559        -0.468250        -0.835547
 C         3.343191        -1.074516         0.178035
 O         2.002633        -1.160173        -0.440897
 C         3.318145         0.220953         0.968246
 O         1.966430         0.457605         1.287664
 H        -0.464021        -0.802932         0.851454
 H        -0.549957         0.843642         0.392873
 H        -0.507192        -0.544680        -0.841418
 H         2.188339         0.744177        -1.896565
 H         1.708375         2.213230        -0.948186
 H         4.442744         1.766386        -0.492775
 H         4.260667        -0.933947        -1.840855
 H         5.377346        -0.395362        -0.586756
 H         3.632795        -2.022181         0.660739
 H         3.981296         0.361968         1.775160
