19
Iteration:  4772
 C        -0.061273        -0.061019        -0.087403
 C         1.454114         0.073317        -0.024965
 C         2.210196         1.137556        -0.846951
 C         3.653740         0.969743        -0.330246
 C         4.266986        -0.359478        -0.998400
 C         3.374470        -1.114504         0.136815
 O         2.011861        -1.241275        -0.251917
 C         3.312203         0.201719         0.941901
 O         1.927898         0.391738         1.353995
 H        -0.135747        -0.907140         0.579449
 H        -0.382493         0.952575         0.253823
 H        -0.635055        -0.246055        -1.081677
 H         2.067660         1.162412        -1.952727
 H         1.886893         2.166541        -0.540254
 H         4.283123         1.875069        -0.445939
 H         3.956372        -0.603246        -2.089865
 H         5.327428        -0.384184        -1.022908
 H         3.754249        -2.089382         0.494691
 H         4.035155         0.322954         1.773405
