19
Iteration:  1380
 C        -0.105085         0.077840         0.035153
 C         1.359016         0.123402         0.082711
 C         2.152623         1.038141        -0.912065
 C         3.642050         0.987224        -0.407033
 C         4.406722        -0.284484        -0.906537
 C         3.354233        -1.122932         0.055447
 O         2.028191        -1.274876        -0.331656
 C         3.336037         0.158830         0.926784
 O         1.961987         0.302665         1.305886
 H        -0.592269        -0.215144         0.856134
 H        -0.427562         1.151156         0.023045
 H        -0.436202        -0.357926        -0.892395
 H         2.073719         0.705309        -1.980767
 H         1.604226         2.027115        -0.804101
 H         4.201237         1.922902        -0.215046
 H         4.475458        -0.489445        -1.978087
 H         5.338186        -0.195157        -0.358991
 H         3.857657        -2.008518         0.567499
 H         4.035472         0.099215         1.782610
