19
Iteration:   948
 C        -0.056489        -0.068037        -0.069920
 C         1.493833         0.037981        -0.014643
 C         2.128835         1.057642        -0.931731
 C         3.594513         0.930532        -0.423914
 C         4.230240        -0.361133        -0.855083
 C         3.375907        -1.107325         0.136668
 O         2.003646        -1.194260        -0.302298
 C         3.360920         0.289417         0.987982
 O         2.041801         0.443516         1.334178
 H        -0.310930        -0.812614         0.566246
 H        -0.608135         0.932656         0.161616
 H        -0.433333        -0.401111        -1.050031
 H         1.968983         0.972266        -1.963484
 H         1.834892         2.147945        -0.573937
 H         4.204908         1.795820        -0.565280
 H         4.211380        -0.720340        -1.935580
 H         5.234765        -0.490901        -0.513315
 H         3.382471        -2.155523         0.569777
 H         3.980153         0.226528         1.926204
