19
Iteration:  3602
 C        -0.118713        -0.097851         0.054767
 C         1.416961         0.161390         0.030016
 C         2.209663         1.123020        -0.959661
 C         3.678566         0.982461        -0.445200
 C         4.308553        -0.334069        -0.853726
 C         3.329710        -1.088002         0.075876
 O         1.989278        -1.272198        -0.321029
 C         3.307628         0.213871         0.949951
 O         1.999123         0.414394         1.272535
 H        -0.231651        -1.025947         0.715327
 H        -0.489404         0.687067         0.702600
 H        -0.448237        -0.301212        -0.963213
 H         2.213561         0.634350        -1.920477
 H         1.975700         2.163764        -0.877091
 H         4.376741         1.876062        -0.376316
 H         4.398973        -0.669266        -1.837927
 H         5.308375        -0.425684        -0.379084
 H         3.476930        -2.024188         0.578957
 H         3.734745         0.113523         1.985190
