19
Iteration:  1735charge 0 multiplicity 1
 C        -0.054199         0.030362        -0.173938
 C         1.486385         0.068894         0.042629
 C         2.112557         1.112622        -0.829732
 C         3.605613         0.983956        -0.457380
 C         4.226069        -0.334814        -1.006396
 C         3.372144        -1.136462         0.143870
 O         2.030224        -1.291786        -0.161350
 C         3.350100         0.234048         0.902526
 O         2.001875         0.352625         1.408115
 H        -0.658361        -0.475102         0.521388
 H        -0.453583         1.083249        -0.292306
 H        -0.106662        -0.361655        -1.201310
 H         1.992332         0.843527        -1.968593
 H         1.781842         2.189990        -0.675931
 H         4.315620         1.836340        -0.469479
 H         3.988170        -0.700790        -2.038007
 H         5.252145        -0.665702        -0.633024
 H         3.929115        -1.900798         0.660386
 H         3.983041         0.497169         1.784067
