19
Iteration:  3135charge 0 multiplicity 1
 C        -0.023078        -0.044935        -0.069079
 C         1.447899         0.078597        -0.019132
 C         2.252435         1.196198        -0.846012
 C         3.709815         0.944857        -0.322183
 C         4.172977        -0.366228        -0.991793
 C         3.339397        -1.070385         0.136529
 O         2.042776        -1.226502        -0.304197
 C         3.311034         0.242895         1.015014
 O         1.931602         0.296216         1.295712
 H        -0.361681        -0.509937         0.803887
 H        -0.402838         0.995139         0.053753
 H        -0.323631        -0.583326        -0.946024
 H         2.207103         1.015045        -1.954894
 H         1.714348         2.176832        -0.544116
 H         4.254000         1.905631        -0.348217
 H         3.713827        -0.568122        -2.037709
 H         5.228395        -0.590340        -1.071291
 H         3.695547        -2.027135         0.538365
 H         3.882490         0.124764         1.887582
