19
Iteration:  1900
 C        -0.024381        -0.057321        -0.093381
 C         1.440590         0.008953         0.015415
 C         2.120247         1.147667        -0.905764
 C         3.609898         0.957628        -0.406482
 C         4.316316        -0.408431        -0.991743
 C         3.364900        -1.105853         0.123211
 O         2.019187        -1.204181        -0.224000
 C         3.348462         0.278495         0.962140
 O         1.984125         0.423902         1.359489
 H        -0.419225        -0.845314         0.540296
 H        -0.463180         0.862885         0.236952
 H        -0.290821        -0.228979        -1.151438
 H         1.831115         0.693924        -1.863475
 H         1.595434         2.072923        -0.776447
 H         4.260933         1.842699        -0.354940
 H         4.067647        -0.739270        -1.958441
 H         5.364169        -0.540934        -0.607838
 H         3.616042        -2.035408         0.583727
 H         3.996626         0.379797         1.830206
