19
Iteration:  1129charge 0 multiplicity 1
 C         0.168190        -0.448918        -0.658928
 C         1.542506        -0.084100        -0.091080
 C         2.316341        -1.394512         0.418665
 C         3.535897        -0.650168         0.956805
 O         4.275121        -0.275345        -0.221628
 C         3.665011         0.989604        -0.314571
 C         2.359880         0.835430        -1.053285
 C         3.023928         0.835039         1.197889
 O         1.589156         0.845004         1.137674
 H        -0.579319        -0.947059         0.041534
 H        -0.380744         0.333774        -1.232437
 H         0.468550        -1.111728        -1.526065
 H         1.858153        -1.838788         1.364535
 H         2.541230        -2.232795        -0.237643
 H         4.162355        -1.215648         1.589452
 H         4.203299         1.942589        -0.787376
 H         1.901112         1.817733        -0.996571
 H         2.445958         0.407663        -2.064914
 H         3.519989         1.517909         1.893959
