19
Iteration:  1309
 C         0.004064        -0.265911        -0.456217
 C         1.457301        -0.133457        -0.154292
 C         2.350283        -1.363340         0.347465
 C         3.596639        -0.639095         0.983051
 O         4.442288        -0.175103        -0.104426
 C         3.619870         1.006549        -0.263065
 C         2.356913         0.716061        -1.157070
 C         3.030295         0.799060         1.126405
 O         1.604011         0.702509         0.995191
 H        -0.530061        -0.712244         0.392884
 H        -0.315447         0.717576        -0.822563
 H        -0.238664        -0.995808        -1.222245
 H         1.842598        -2.056724         1.002954
 H         2.842314        -1.933428        -0.502205
 H         3.935841        -1.173706         1.963315
 H         4.105395         1.933565        -0.479694
 H         2.075762         1.670578        -1.567865
 H         2.666348         0.124643        -2.019374
 H         3.207361         1.323164         2.048726
