19
Iteration:   255
 C         0.254610        -0.474208        -0.654603
 C         1.530060        -0.019904        -0.026236
 C         2.198993        -1.245030         0.448632
 C         3.496283        -0.693044         0.912649
 O         4.342892        -0.291756        -0.195732
 C         3.604329         0.963348        -0.316928
 C         2.292099         0.848974        -1.034932
 C         3.065552         0.742882         1.154467
 O         1.669001         0.831679         1.111636
 H        -0.504558        -1.153546        -0.255079
 H        -0.329031         0.312044        -1.211725
 H         0.608552        -1.116486        -1.512429
 H         1.610875        -1.808669         1.218105
 H         2.389250        -1.908944        -0.546705
 H         4.113780        -1.222178         1.753327
 H         4.124159         1.814258        -0.547880
 H         1.865748         1.882001        -0.990789
 H         2.428532         0.452724        -2.084283
 H         3.513784         1.410144         1.895833
