19
Iteration:   648charge 0 multiplicity 1
 C         0.042194        -0.291708        -0.484660
 C         1.504257        -0.148027        -0.101493
 C         2.305360        -1.348343         0.357678
 C         3.510507        -0.684880         0.960153
 O         4.471776        -0.193761        -0.138649
 C         3.607860         1.051660        -0.280378
 C         2.431102         0.696941        -1.117845
 C         2.982923         0.743815         1.138423
 O         1.612716         0.821468         0.983653
 H        -0.376776        -0.894063         0.364192
 H        -0.484964         0.663640        -0.483002
 H        -0.209556        -0.953241        -1.321636
 H         1.791549        -1.815896         1.159743
 H         2.432095        -2.145535        -0.430482
 H         4.266056        -1.134900         1.632269
 H         4.178015         1.918669        -0.450443
 H         1.737392         1.497250        -1.504267
 H         2.821130         0.029873        -1.960343
 H         3.201594         1.336182         1.970895
