19
Iteration:   916
 C        -0.050439        -0.216661        -0.357468
 C         1.477907        -0.098226        -0.119961
 C         2.310242        -1.406879         0.260647
 C         3.569895        -0.655333         0.872936
 O         4.560266        -0.094503        -0.040708
 C         3.623042         0.991133        -0.248160
 C         2.500684         0.626450        -1.260107
 C         2.909227         0.798830         1.161367
 O         1.570770         0.688664         1.043380
 H        -0.426226        -0.684917         0.530234
 H        -0.565689         0.795947        -0.539094
 H        -0.341739        -0.665582        -1.342345
 H         1.738034        -1.975462         0.943318
 H         2.700148        -2.061883        -0.564208
 H         4.086694        -1.213548         1.700560
 H         4.115775         1.871982        -0.643960
 H         1.937177         1.405928        -1.818959
 H         2.847030        -0.223586        -1.790995
 H         3.046605         1.548961         1.937493
