19
Iteration:  1423
 C         0.124169        -0.423231        -0.693093
 C         1.502216        -0.129964        -0.159542
 C         2.285308        -1.279649         0.456983
 C         3.587279        -0.643661         0.971761
 O         4.272196        -0.261633        -0.270212
 C         3.600005         1.040923        -0.242779
 C         2.381736         0.789571        -1.109285
 C         3.071883         0.794859         1.212707
 O         1.651271         0.797257         1.149885
 H        -0.351103        -1.085604         0.001679
 H        -0.487162         0.336927        -1.150908
 H         0.396570        -1.180536        -1.456666
 H         1.843167        -1.546409         1.442169
 H         2.319102        -2.198589        -0.082151
 H         4.147847        -1.151270         1.790032
 H         4.390175         1.762758        -0.530376
 H         1.862646         1.816986        -1.125031
 H         2.435084         0.208528        -2.046020
 H         3.349618         1.459021         2.002423
