19
Iteration:   690charge 0 multiplicity 1
 C         0.145924        -0.435588        -0.773873
 C         1.491733        -0.035314        -0.077045
 C         2.293496        -1.331425         0.565033
 C         3.549366        -0.626942         0.930431
 O         4.335234        -0.314089        -0.255177
 C         3.627803         0.995922        -0.298888
 C         2.262745         0.800735        -1.006854
 C         3.098047         0.800352         1.153773
 O         1.633007         0.823390         1.144399
 H        -0.503479        -0.799998        -0.021981
 H        -0.331782         0.424423        -1.203935
 H         0.328632        -1.144890        -1.558196
 H         1.819605        -1.988862         1.221833
 H         2.861314        -1.942138        -0.306905
 H         4.014556        -1.152084         1.722359
 H         4.309754         1.851900        -0.589672
 H         1.661451         1.795138        -1.216496
 H         2.458582         0.199227        -1.929323
 H         3.571391         1.371809         1.910704
