19
Iteration:  2930
 C        -0.056020        -0.218693        -0.503601
 C         1.447622        -0.017344        -0.174565
 C         2.331189        -1.355619         0.248426
 C         3.524765        -0.721618         0.940018
 O         4.513068        -0.230621        -0.012705
 C         3.634937         0.962967        -0.227772
 C         2.433586         0.558644        -1.130415
 C         3.020404         0.788328         1.205276
 O         1.582099         0.899388         0.987290
 H        -0.433688        -0.926569         0.192169
 H        -0.710836         0.683553        -0.238613
 H        -0.372080        -0.663834        -1.490197
 H         1.811037        -2.015044         0.973623
 H         2.589668        -2.058404        -0.564362
 H         4.119661        -1.315149         1.691073
 H         4.228774         1.719465        -0.732443
 H         2.183829         1.408220        -1.715373
 H         2.931919        -0.130360        -1.807556
 H         3.407434         1.419934         1.976232
