19
Iteration:  1645
 C        -0.015272        -0.176834        -0.348393
 C         1.525203        -0.168231        -0.150313
 C         2.355941        -1.366724         0.231622
 C         3.558174        -0.666807         0.916605
 O         4.592649        -0.121139        -0.004441
 C         3.554677         0.987135        -0.271591
 C         2.375256         0.590394        -1.198683
 C         2.907202         0.819152         1.185034
 O         1.589088         0.720101         0.959162
 H        -0.478143        -0.503326         0.604295
 H        -0.396173         0.816927        -0.520309
 H        -0.258489        -0.769947        -1.213134
 H         1.823674        -2.127722         0.873489
 H         2.687611        -1.988936        -0.565186
 H         4.007693        -1.231909         1.695328
 H         4.204917         1.871318        -0.677019
 H         1.729010         1.447875        -1.621811
 H         2.756041        -0.032543        -2.062184
 H         3.202743         1.492873         2.004017
