19
Iteration:  1742charge 0 multiplicity 1
 C         0.144958        -0.303915        -0.528358
 C         1.521926        -0.109714        -0.224622
 C         2.304155        -1.381250         0.415879
 C         3.546004        -0.616932         0.943816
 O         4.381245        -0.201132        -0.109188
 C         3.596601         0.985384        -0.255065
 C         2.337250         0.718986        -1.137250
 C         3.035260         0.774889         1.152918
 O         1.588347         0.751624         1.054572
 H        -0.367358        -0.782887         0.313934
 H        -0.329426         0.662907        -0.747067
 H         0.092800        -1.013212        -1.377705
 H         1.762267        -2.086417         1.229835
 H         2.543931        -2.007977        -0.368952
 H         4.076252        -1.025556         1.777507
 H         4.168022         2.002349        -0.562195
 H         1.911835         1.653894        -1.416498
 H         2.634969         0.312756        -2.107702
 H         3.472223         1.439911         1.888346
