19
Iteration:   287charge 0 multiplicity 1
 C        -0.001297        -0.316608        -0.481468
 C         1.547581        -0.122371        -0.205185
 C         2.344381        -1.335403         0.429748
 C         3.558075        -0.647749         0.923027
 O         4.369403        -0.244162        -0.162671
 C         3.631828         1.048607        -0.227811
 C         2.470654         0.798873        -1.177851
 C         2.988355         0.752266         1.168325
 O         1.597700         0.724244         1.062675
 H        -0.628853        -0.796926         0.301150
 H        -0.461655         0.678085        -0.748529
 H        -0.142048        -0.962534        -1.390049
 H         1.648429        -1.837154         1.122518
 H         2.500385        -2.013048        -0.518956
 H         4.080094        -1.253755         1.679636
 H         4.289957         1.823266        -0.349421
 H         2.018445         1.713342        -1.515031
 H         2.848626         0.200578        -1.963389
 H         3.215052         1.408795         1.999451
