19
Iteration:  1066charge 0 multiplicity 1
 C         0.041682        -0.229146        -0.339891
 C         1.510898        -0.155715        -0.179299
 C         2.342528        -1.357803         0.258097
 C         3.544305        -0.634891         0.934274
 O         4.541487        -0.139332        -0.075886
 C         3.552319         1.034074        -0.242803
 C         2.421499         0.590197        -1.174759
 C         2.979634         0.749061         1.178448
 O         1.541980         0.732607         0.951753
 H        -0.515961        -0.674208         0.457664
 H        -0.283719         0.825363        -0.367679
 H        -0.158670        -0.703586        -1.314104
 H         1.654666        -1.888685         1.045052
 H         2.712332        -1.911684        -0.555442
 H         3.943775        -1.291063         1.836483
 H         4.225629         1.922275        -0.435769
 H         1.839816         1.448868        -1.577356
 H         2.683772         0.105420        -2.112176
 H         3.167963         1.498011         1.960903
