19
Iteration:   497charge 0 multiplicity 1
 C         0.035040        -0.304237        -0.464106
 C         1.481933        -0.070700        -0.143595
 C         2.241652        -1.345865         0.238134
 C         3.571279        -0.625147         0.938866
 O         4.491426        -0.135430        -0.027359
 C         3.633934         0.909040        -0.296091
 C         2.390580         0.666199        -1.162684
 C         3.072141         0.790409         1.160455
 O         1.571728         0.776312         1.052269
 H        -0.406070        -0.843747         0.443178
 H        -0.527150         0.673373        -0.535074
 H        -0.093756        -0.956106        -1.364417
 H         1.547751        -2.047679         0.946772
 H         2.563446        -1.890408        -0.691552
 H         4.026126        -1.296175         1.773063
 H         4.141851         1.792653        -0.631596
 H         2.024505         1.579661        -1.513714
 H         2.628400        -0.072982        -1.952515
 H         3.285410         1.351378         2.040990
