19
Iteration:  3536
 C         0.028894        -0.148753        -0.412037
 C         1.468106        -0.057914        -0.142011
 C         2.352452        -1.325158         0.201905
 C         3.497861        -0.715697         0.972185
 O         4.538947        -0.160476         0.049753
 C         3.620008         0.911195        -0.287748
 C         2.424308         0.594659        -1.162278
 C         2.956264         0.748177         1.057967
 O         1.536054         0.765653         1.022648
 H        -0.482546        -0.176159         0.540569
 H        -0.144214         0.838751        -0.993440
 H        -0.095024        -1.026729        -1.110539
 H         1.713596        -1.967038         0.838162
 H         2.789427        -1.885394        -0.615902
 H         3.969487        -1.249540         1.782257
 H         4.238569         1.854739        -0.443020
 H         1.977912         1.474763        -1.619392
 H         2.719015        -0.149860        -2.062520
 H         3.253629         1.300357         1.957461
