19
Iteration:  2770charge 0 multiplicity 1
 C        -0.005736        -0.293265        -0.631047
 C         1.416232        -0.000983        -0.111125
 C         2.234069        -1.299511         0.381253
 C         3.521522        -0.650479         0.936490
 O         4.517087        -0.222388        -0.120698
 C         3.725031         0.942224        -0.219616
 C         2.371955         0.626193        -1.178204
 C         3.024674         0.783535         1.175449
 O         1.611786         0.768497         1.099560
 H        -0.452456        -1.147841        -0.080944
 H        -0.678236         0.588200        -0.473172
 H         0.107376        -0.659050        -1.623692
 H         1.819836        -1.691477         1.288941
 H         2.388232        -2.082735        -0.419997
 H         4.131362        -1.075595         1.762261
 H         4.290379         1.914113        -0.458705
 H         2.092530         1.624006        -1.769841
 H         2.641614        -0.087548        -1.940538
 H         3.460788         1.363459         1.982010
