19
Iteration:  1668charge 0 multiplicity 1
 C        -0.002988        -0.325667        -0.539318
 C         1.494475        -0.113012        -0.128515
 C         2.339891        -1.344606         0.378950
 C         3.592840        -0.608224         0.963315
 O         4.384179        -0.214987        -0.154074
 C         3.659199         0.978569        -0.290775
 C         2.415897         0.739025        -1.148132
 C         3.018211         0.812813         1.164195
 O         1.558200         0.722233         1.055214
 H        -0.431444        -0.792908         0.391568
 H        -0.531454         0.608795        -0.644292
 H        -0.090045        -0.924952        -1.443553
 H         1.741175        -1.942759         1.054841
 H         2.767885        -2.150737        -0.252593
 H         4.161565        -1.064334         1.765301
 H         4.299609         1.911609        -0.332956
 H         1.911120         1.739083        -1.472418
 H         2.801081         0.193463        -2.072763
 H         3.394177         1.413580         1.952551
