19
Iteration:  2050
 C        -0.017843        -0.289624        -0.477428
 C         1.494606        -0.123427        -0.142319
 C         2.301819        -1.378438         0.270883
 C         3.539525        -0.669326         0.893696
 O         4.535143        -0.104728        -0.050170
 C         3.621243         0.959889        -0.282941
 C         2.408467         0.608420        -1.160930
 C         2.981667         0.801296         1.172406
 O         1.618088         0.826467         1.091417
 H        -0.694882        -0.793211         0.276109
 H        -0.490971         0.752234        -0.621153
 H        -0.355292        -0.900521        -1.388757
 H         1.645141        -1.976834         1.003625
 H         2.553657        -2.059426        -0.508345
 H         4.071696        -1.287654         1.641400
 H         4.177875         1.948619        -0.583954
 H         1.932205         1.465334        -1.661073
 H         2.688841        -0.107163        -1.979784
 H         3.389186         1.286707         2.049305
