19
Iteration:  1538
 C         0.107860        -0.447756        -0.677738
 C         1.452700        -0.054276        -0.119016
 C         2.269344        -1.298552         0.451740
 C         3.588366        -0.626205         0.897295
 O         4.426905        -0.244768        -0.236049
 C         3.587064         0.974962        -0.242980
 C         2.385048         0.762234        -1.132157
 C         3.019651         0.815136         1.233637
 O         1.580064         0.817701         1.176080
 H        -0.420893        -1.158884         0.044738
 H        -0.449256         0.450217        -0.957191
 H         0.347219        -1.110071        -1.524353
 H         1.775556        -1.698270         1.283339
 H         2.627542        -2.160228        -0.250523
 H         4.085651        -1.236770         1.684663
 H         4.110367         1.784312        -0.660753
 H         1.926586         1.731072        -1.284139
 H         2.549536         0.148284        -2.023534
 H         3.726969         1.357626         1.884317
