19
Iteration:   691charge 0 multiplicity 1
 C         0.148195        -0.429172        -0.768673
 C         1.485145        -0.047119        -0.081057
 C         2.293913        -1.336418         0.558875
 C         3.547474        -0.631668         0.935077
 O         4.332344        -0.312129        -0.260347
 C         3.625107         1.004318        -0.294184
 C         2.266053         0.798506        -1.009432
 C         3.103846         0.813880         1.157505
 O         1.629453         0.829538         1.138439
 H        -0.528611        -0.834095        -0.007018
 H        -0.317555         0.428938        -1.207272
 H         0.340698        -1.170931        -1.533722
 H         1.833745        -2.011731         1.215722
 H         2.839465        -1.965716        -0.311397
 H         4.070563        -1.160580         1.765227
 H         4.318953         1.799753        -0.568652
 H         1.704312         1.829543        -1.183993
 H         2.447806         0.181463        -1.963672
 H         3.575545         1.334525         1.933891
