19
Iteration:   945charge 0 multiplicity 1
 C         0.092053        -0.375227        -0.601142
 C         1.531373        -0.121060        -0.068855
 C         2.308988        -1.326307         0.341017
 C         3.545298        -0.641765         0.908341
 O         4.437253        -0.213167        -0.131077
 C         3.581957         0.943166        -0.243713
 C         2.334159         0.743108        -1.137245
 C         3.007395         0.752382         1.155942
 O         1.645714         0.845663         1.098440
 H        -0.510025        -0.953117         0.113429
 H        -0.421028         0.551532        -0.608717
 H         0.067461        -0.860601        -1.571404
 H         1.700759        -1.888793         1.156907
 H         2.756721        -1.964595        -0.346389
 H         4.063341        -1.140744         1.825035
 H         4.049750         1.898688        -0.510899
 H         1.673261         1.613464        -1.322040
 H         2.399052         0.260892        -2.146760
 H         3.398644         1.447365         1.846050
