19
Iteration:  3796charge 0 multiplicity 1
 C        -0.056758        -0.158828        -0.465437
 C         1.438277        -0.042308        -0.114245
 C         2.334619        -1.347050         0.275340
 C         3.558916        -0.688785         0.962868
 O         4.583085        -0.262679         0.072147
 C         3.661358         0.930201        -0.235752
 C         2.432581         0.612394        -1.244001
 C         2.956321         0.754167         1.118873
 O         1.543955         0.810819         0.973055
 H        -0.549300        -0.900862         0.087585
 H        -0.521453         0.854968        -0.472194
 H        -0.313089        -0.464893        -1.476709
 H         1.926168        -2.129135         0.943490
 H         2.454401        -1.728741        -0.732837
 H         4.089767        -1.218724         1.730737
 H         4.305656         1.806226        -0.524288
 H         1.925996         1.595971        -1.540288
 H         2.737186         0.078347        -2.073906
 H         3.327545         1.391200         1.933677
