19
Iteration:  3131
 C         0.095492        -0.297079        -0.592345
 C         1.484261        -0.066586        -0.120711
 C         2.165152        -1.399359         0.413625
 C         3.534634        -0.718170         0.908734
 O         4.450619        -0.228991        -0.075498
 C         3.676381         0.996172        -0.260257
 C         2.425995         0.697864        -1.153035
 C         3.052261         0.838224         1.167484
 O         1.611154         0.806848         1.030264
 H        -0.520157        -1.049160        -0.035707
 H        -0.472965         0.588850        -0.509461
 H         0.069114        -0.432479        -1.688376
 H         1.604751        -1.666146         1.338608
 H         2.336174        -2.258882        -0.250837
 H         3.917245        -1.341438         1.691409
 H         4.294060         1.927060        -0.545500
 H         1.891152         1.541998        -1.487141
 H         2.736001         0.154716        -2.010819
 H         3.266306         1.452103         2.023958
