19
Iteration:  2292
 C         0.153179        -0.415263        -0.680808
 C         1.528488        -0.020818        -0.089911
 C         2.322859        -1.302209         0.563586
 C         3.565168        -0.625115         1.035831
 O         4.280097        -0.353557        -0.326134
 C         3.610542         0.944221        -0.270333
 C         2.349351         0.835884        -1.094371
 C         3.089678         0.777396         1.207688
 O         1.583612         0.793045         1.070873
 H        -0.620113        -0.969601        -0.096971
 H        -0.356321         0.425113        -1.231389
 H         0.481550        -0.953458        -1.616417
 H         1.561793        -1.625094         1.286780
 H         2.513390        -2.258955        -0.089301
 H         4.226857        -0.896961         1.845030
 H         4.355597         1.794884        -0.523794
 H         1.864470         1.913072        -1.269878
 H         2.562774         0.458634        -2.067652
 H         3.470079         1.520992         1.951166
