19
Iteration:   996charge 0 multiplicity 1
 C         0.142826        -0.432524        -0.611443
 C         1.564937        -0.112853        -0.165685
 C         2.258491        -1.354666         0.424325
 C         3.566060        -0.682965         0.976004
 O         4.354264        -0.249955        -0.242260
 C         3.566606         1.029890        -0.219809
 C         2.378806         0.825355        -1.170477
 C         3.052794         0.800886         1.180368
 O         1.625773         0.838559         1.177036
 H        -0.540706        -0.877993         0.207151
 H        -0.434452         0.444484        -0.967563
 H         0.239422        -1.218335        -1.397219
 H         1.571226        -1.626997         1.179847
 H         2.479023        -2.188548        -0.311178
 H         4.135095        -1.319756         1.537096
 H         3.996002         2.019412        -0.523235
 H         1.704527         1.595886        -1.472171
 H         2.726713         0.398840        -2.127024
 H         3.394216         1.256188         2.124447
