19
Iteration:  4694
 C         0.069611        -0.171673        -0.651029
 C         1.532402        -0.116830        -0.187781
 C         2.176532        -1.340276         0.365861
 C         3.565777        -0.666924         0.970015
 O         4.384554        -0.261468        -0.133235
 C         3.682863         0.983260        -0.227043
 C         2.476864         0.691740        -1.059915
 C         2.973251         0.811290         1.210081
 O         1.629904         0.727957         1.030972
 H        -0.150772        -1.116488        -1.134221
 H        -0.449178        -0.308822         0.367205
 H        -0.122269         0.811061        -1.131421
 H         1.489000        -1.850431         1.106241
 H         2.354409        -2.156711        -0.377149
 H         3.969399        -1.426576         1.743058
 H         4.258349         1.930065        -0.344055
 H         1.940463         1.636811        -1.442171
 H         2.682692         0.133606        -2.071193
 H         3.386769         1.369326         2.039517
