19
Iteration:  3259charge 0 multiplicity 1
 C        -0.015303        -0.205219        -0.490713
 C         1.557012        -0.097096        -0.165879
 C         2.341326        -1.328845         0.338251
 C         3.565848        -0.647917         0.980440
 O         4.464830        -0.230346         0.048638
 C         3.642461         0.951456        -0.320479
 C         2.405853         0.683797        -1.236306
 C         2.975045         0.758578         1.139799
 O         1.569885         0.714802         1.000493
 H        -0.595414        -0.723298         0.361232
 H        -0.354914         0.849736        -0.466029
 H        -0.225439        -0.539492        -1.507698
 H         1.755076        -1.954106         0.982504
 H         2.550983        -2.054986        -0.480183
 H         3.958003        -1.214863         1.840518
 H         4.199364         1.854209        -0.587007
 H         1.990556         1.791103        -1.453352
 H         2.533162         0.197742        -2.161652
 H         3.286194         1.434245         1.910557
