19
Iteration:  4054
 C         0.146560        -0.313524        -0.665743
 C         1.487515         0.019325        -0.109751
 C         2.270293        -1.292565         0.301375
 C         3.487953        -0.726495         0.993376
 O         4.419554        -0.313875        -0.059188
 C         3.609341         0.899243        -0.296941
 C         2.298813         0.808962        -1.095826
 C         3.076928         0.769491         1.196358
 O         1.627669         0.820613         1.086637
 H        -0.426474        -0.734207         0.116166
 H        -0.328916         0.489044        -1.155932
 H         0.315019        -1.165056        -1.369531
 H         1.772562        -1.937455         1.070596
 H         2.513750        -1.840170        -0.620549
 H         4.065067        -1.331924         1.691433
 H         4.230785         1.756059        -0.548588
 H         1.908132         1.837617        -1.385167
 H         2.618300         0.226104        -2.001873
 H         3.360912         1.394578         2.060201
