19
Iteration:  4501
 C        -0.027478        -0.253283        -0.518864
 C         1.470412        -0.024009        -0.178691
 C         2.214676        -1.273411         0.195291
 C         3.461086        -0.719641         0.894744
 O         4.646012        -0.233673         0.032519
 C         3.643627         0.961042        -0.213124
 C         2.407161         0.666363        -1.117148
 C         3.027594         0.729442         1.183131
 O         1.621899         0.799564         1.052793
 H        -0.516690         0.090068         0.403217
 H        -0.383184         0.337114        -1.454172
 H        -0.488963        -1.237517        -0.784511
 H         1.715449        -1.978813         0.886629
 H         2.459746        -1.882838        -0.700326
 H         3.847858        -1.597819         1.546223
 H         4.226436         1.810697        -0.561159
 H         1.984308         1.746444        -1.444498
 H         2.501792         0.049129        -2.044583
 H         3.328102         1.347804         2.015067
