19
Iteration:  3597
 C         0.269003        -0.353167        -0.646882
 C         1.579969        -0.061569        -0.116855
 C         2.215062        -1.306554         0.425037
 C         3.495853        -0.681993         0.973706
 O         4.277814        -0.379627        -0.205088
 C         3.695548         0.955726        -0.274329
 C         2.348725         0.777293        -1.094718
 C         3.046590         0.864582         1.213274
 O         1.588195         0.846371         1.095802
 H        -0.515339        -0.908232        -0.126723
 H        -0.232783         0.450262        -1.097004
 H         0.519807        -0.939226        -1.577290
 H         1.485640        -1.692016         1.184566
 H         2.569421        -2.040541        -0.341679
 H         4.117643        -1.307030         1.642267
 H         4.335569         1.752778        -0.623467
 H         1.728746         1.783338        -0.924060
 H         2.468725         0.401544        -2.131560
 H         3.170980         1.472460         2.158671
