19
Iteration:  3862
 C         0.140841        -0.275480        -0.707272
 C         1.500436        -0.067870        -0.146157
 C         2.219457        -1.338518         0.433981
 C         3.548623        -0.688304         0.955515
 O         4.400457        -0.325077        -0.148845
 C         3.713575         0.917188        -0.262868
 C         2.369720         0.726126        -1.045553
 C         3.048881         0.820834         1.179968
 O         1.556210         0.830075         1.063700
 H        -0.395369        -0.790335         0.105867
 H        -0.282028         0.771696        -1.004836
 H         0.071152        -0.974967        -1.577986
 H         1.659956        -1.785425         1.267766
 H         2.468983        -1.954600        -0.446400
 H         3.898019        -1.044430         1.919161
 H         4.389953         1.769253        -0.582071
 H         1.800227         1.708793        -0.963654
 H         2.477764         0.364643        -2.027951
 H         3.422116         1.497175         1.944041
