19
Iteration:  1837charge 0 multiplicity 1
 C         0.114696        -0.454525        -0.676502
 C         1.488892        -0.127415        -0.090160
 C         2.322408        -1.347147         0.522194
 C         3.563141        -0.635248         1.036300
 O         4.287391        -0.281198        -0.284873
 C         3.682892         0.989599        -0.249243
 C         2.399847         0.896151        -1.125972
 C         3.058911         0.838891         1.108459
 O         1.575056         0.783852         1.109465
 H        -0.648014        -0.917682        -0.068855
 H        -0.340277         0.535709        -0.877629
 H         0.183277        -1.095515        -1.575747
 H         1.709706        -1.766834         1.258152
 H         2.629335        -2.249020        -0.048374
 H         4.220678        -1.126345         1.793813
 H         4.359264         1.703333        -0.432398
 H         1.888364         1.880313        -1.299135
 H         2.583030         0.424250        -2.084489
 H         3.357449         1.420404         2.001657
