19
Iteration:  4940charge 0 multiplicity 1
 C        -0.061937        -0.160404        -0.537742
 C         1.465368         0.023877        -0.187139
 C         2.259780        -1.307646         0.342911
 C         3.559391        -0.724204         1.020593
 O         4.578587        -0.231743         0.117200
 C         3.608981         0.885398        -0.288501
 C         2.416343         0.529192        -1.292015
 C         3.011001         0.785704         1.133550
 O         1.603270         0.825789         0.976663
 H        -0.536253         0.121495         0.437921
 H        -0.315169         0.440473        -1.385434
 H        -0.272328        -1.172592        -0.924521
 H         1.662532        -1.761688         1.139298
 H         2.387630        -2.008232        -0.504566
 H         3.987328        -1.205141         1.889882
 H         4.341381         1.672368        -0.448137
 H         1.984250         1.457572        -1.756625
 H         2.677780        -0.162836        -2.064316
 H         3.386659         1.506411         1.982342
