19
Iteration:  1125charge 0 multiplicity 1
 C         0.202718        -0.463874        -0.680243
 C         1.541502        -0.039176        -0.114874
 C         2.333949        -1.362346         0.459282
 C         3.545993        -0.656770         0.919327
 O         4.294606        -0.277665        -0.224364
 C         3.617243         0.981436        -0.304989
 C         2.351635         0.824445        -1.042356
 C         3.035742         0.822268         1.170267
 O         1.585119         0.851808         1.174948
 H        -0.465340        -0.969478         0.030243
 H        -0.321822         0.344827        -1.174591
 H         0.388774        -1.103041        -1.533794
 H         1.693904        -1.788925         1.202881
 H         2.490471        -2.284391        -0.300080
 H         4.067800        -1.229953         1.725147
 H         4.236920         1.694756        -0.757984
 H         1.787839         1.791585        -0.965423
 H         2.410973         0.345635        -2.047060
 H         3.402938         1.520144         1.901742
