19
Iteration:  3821
 C         0.003067        -0.171092        -0.390666
 C         1.504941        -0.064406        -0.263770
 C         2.216894        -1.375352         0.201058
 C         3.420878        -0.679957         0.950474
 O         4.512864        -0.134196         0.053077
 C         3.681470         0.943860        -0.171691
 C         2.489410         0.535072        -1.208477
 C         2.960579         0.792471         1.123253
 O         1.631105         0.802340         0.995724
 H        -0.301678        -0.996667         0.286839
 H        -0.379412         0.805931        -0.207411
 H        -0.565757        -0.393272        -1.234933
 H         1.568003        -1.998633         0.901007
 H         2.531395        -1.995877        -0.689851
 H         4.057105        -1.215046         1.670824
 H         4.217345         1.803484        -0.581119
 H         2.189458         1.414582        -1.813586
 H         3.032517        -0.220760        -1.901023
 H         3.338058         1.119442         2.072135
