19
Iteration:   124
 C         0.165166        -0.384663        -0.613862
 C         1.566192        -0.060554        -0.097903
 C         2.223254        -1.351531         0.468711
 C         3.568776        -0.631016         0.975992
 O         4.302675        -0.319355        -0.237000
 C         3.644571         1.059900        -0.274230
 C         2.342309         0.819430        -1.111789
 C         3.035581         0.780140         1.210538
 O         1.630902         0.762726         1.036549
 H        -0.511584        -0.885067         0.080515
 H        -0.385121         0.482903        -0.935016
 H         0.335814        -1.071885        -1.440130
 H         1.656442        -1.594999         1.321257
 H         2.543514        -2.228733        -0.159201
 H         4.134479        -1.254741         1.763229
 H         4.297806         1.889813        -0.507523
 H         1.887785         1.794526        -1.475932
 H         2.671772         0.297496        -2.026664
 H         3.194950         1.469519         2.058133
