19
Iteration:  3457
 C         0.086555        -0.430931        -0.763101
 C         1.458349        -0.027874        -0.096197
 C         2.215060        -1.238393         0.454968
 C         3.480748        -0.637669         0.994154
 O         4.311012        -0.346970        -0.231317
 C         3.637249         0.996854        -0.221416
 C         2.425208         0.747790        -1.056934
 C         3.143635         0.843654         1.186642
 O         1.683604         0.780241         1.083150
 H        -0.339936        -1.311665        -0.210727
 H        -0.503493         0.493460        -0.850570
 H         0.540402        -0.740899        -1.803888
 H         1.693360        -1.654026         1.394746
 H         2.399547        -2.103860        -0.232313
 H         3.945367        -1.156131         1.817609
 H         4.379996         1.830897        -0.322157
 H         1.827109         1.724826        -1.276592
 H         2.644541         0.120765        -1.939696
 H         3.450306         1.596888         1.979465
