19
Iteration:   989
 C         0.163549        -0.482241        -0.611184
 C         1.533300        -0.128483        -0.215885
 C         2.272993        -1.317531         0.467270
 C         3.514303        -0.621386         0.961193
 O         4.334888        -0.286109        -0.309743
 C         3.562202         1.029249        -0.222340
 C         2.394096         0.835067        -1.130505
 C         3.043364         0.829134         1.200380
 O         1.642683         0.798397         1.189033
 H        -0.456763        -0.913359         0.176079
 H        -0.298391         0.386601        -1.040890
 H         0.287764        -1.075341        -1.521489
 H         1.566211        -1.631159         1.427949
 H         2.312446        -2.038310        -0.280069
 H         4.116669        -1.334999         1.734670
 H         4.307267         1.941850        -0.424776
 H         1.798445         1.782491        -1.352415
 H         2.820113         0.490570        -2.108460
 H         3.413069         1.243917         2.095556
