19
Iteration:  4960charge 0 multiplicity 1
 C         0.069882        -0.222575        -0.524396
 C         1.550144        -0.112126        -0.200951
 C         2.196565        -1.325504         0.398499
 C         3.424314        -0.661382         1.030145
 O         4.437082        -0.313879        -0.047954
 C         3.692676         0.951843        -0.296870
 C         2.512166         0.602210        -1.131185
 C         2.939515         0.842501         1.110833
 O         1.615569         0.864060         0.954909
 H        -0.541998        -0.268659         0.435237
 H        -0.213909         0.659393        -1.025579
 H        -0.246441        -1.083127        -1.145421
 H         1.636253        -1.792475         1.224173
 H         2.621778        -2.056485        -0.296673
 H         3.949684        -1.149801         1.887903
 H         4.338030         1.720858        -0.693015
 H         2.016240         1.648156        -1.442815
 H         2.898993         0.018307        -1.956248
 H         3.390715         1.374947         2.028419
