19
Iteration:    62charge 0 multiplicity 1
 C         0.036349        -0.312076        -0.490946
 C         1.416423        -0.115963        -0.100024
 C         2.282965        -1.322604         0.264836
 C         3.528394        -0.649849         0.942273
 O         4.507320        -0.190368        -0.022470
 C         3.636442         0.931550        -0.346253
 C         2.417956         0.667991        -1.195530
 C         2.986206         0.795216         1.136302
 O         1.619285         0.832411         1.130794
 H        -0.480188        -0.821439         0.326467
 H        -0.442394         0.670272        -0.779382
 H        -0.018923        -0.971814        -1.394787
 H         1.800126        -2.135643         0.907078
 H         2.627264        -1.884738        -0.586399
 H         4.091952        -1.270006         1.665486
 H         4.212284         1.967959        -0.427697
 H         1.935442         1.574958        -1.534656
 H         2.506805        -0.043232        -2.089351
 H         3.402628         1.488303         1.823103
