19
Iteration:  3823
 C        -0.000249        -0.173615        -0.403715
 C         1.510500        -0.051457        -0.277140
 C         2.215023        -1.380399         0.229854
 C         3.424431        -0.675842         0.962831
 O         4.502989        -0.141730         0.046762
 C         3.677613         0.958187        -0.156675
 C         2.485519         0.551463        -1.228254
 C         2.974682         0.778341         1.118464
 O         1.632981         0.794829         0.998717
 H        -0.292336        -0.983903         0.355331
 H        -0.392962         0.787828        -0.160606
 H        -0.568810        -0.424735        -1.313342
 H         1.591842        -2.040103         0.878950
 H         2.454864        -1.990425        -0.676489
 H         4.088669        -1.180198         1.687119
 H         4.227194         1.773347        -0.551291
 H         2.158609         1.368014        -1.829267
 H         3.056449        -0.190850        -1.971035
 H         3.368000         1.132217         2.074518
