19
Iteration:    24
 C         0.015933        -0.219559        -0.258536
 C         1.543568        -0.151509        -0.257156
 C         2.311308        -1.434491         0.269236
 C         3.517780        -0.692688         0.941544
 O         4.513161        -0.120366         0.017374
 C         3.600196         1.007709        -0.237536
 C         2.471236         0.662800        -1.241588
 C         2.916452         0.761056         1.122637
 O         1.585105         0.789218         0.893427
 H        -0.268710        -0.718772         0.680870
 H        -0.415763         0.760198        -0.180174
 H        -0.491363        -0.758526        -1.040269
 H         1.700548        -1.919097         0.972223
 H         2.597559        -2.106555        -0.584327
 H         3.909338        -1.392924         1.717785
 H         4.232972         1.988581        -0.400184
 H         1.916440         1.588392        -1.573072
 H         2.759951         0.111073        -2.088010
 H         3.289034         1.322929         2.015816
