19
Iteration:  2810
 C        -0.031231        -0.086023        -0.336977
 C         1.483747        -0.164667        -0.228643
 C         2.422612        -1.463474         0.224542
 C         3.501551        -0.615022         1.004366
 O         4.522213        -0.210096        -0.001147
 C         3.718236         0.941003        -0.230971
 C         2.427002         0.646135        -1.180964
 C         2.920816         0.842169         1.084359
 O         1.557498         0.738878         0.926952
 H        -0.413455        -0.488712         0.555528
 H        -0.415308         0.966430        -0.355878
 H        -0.622529        -0.587261        -1.186012
 H         1.853179        -2.210281         0.882615
 H         2.750426        -2.057923        -0.633608
 H         3.794742        -1.128197         1.966503
 H         4.345369         1.805978        -0.371630
 H         1.842128         1.468262        -1.514818
 H         2.610441         0.003558        -2.024409
 H         2.989987         1.339189         1.998624
