19
Iteration:  1505
 C         0.020213        -0.243054        -0.367034
 C         1.529814        -0.161336        -0.202011
 C         2.365587        -1.398051         0.273010
 C         3.522994        -0.657529         0.872844
 O         4.487885        -0.097718        -0.024082
 C         3.565730         0.990280        -0.255102
 C         2.438130         0.609687        -1.157914
 C         2.969552         0.798387         1.174229
 O         1.562865         0.757746         0.993496
 H        -0.527247        -0.652305         0.530176
 H        -0.497847         0.717530        -0.512057
 H        -0.248888        -0.800350        -1.277856
 H         1.825481        -1.985112         0.976498
 H         2.795311        -2.057590        -0.558883
 H         4.018742        -1.150983         1.726635
 H         4.158471         1.808540        -0.611514
 H         2.002657         1.505927        -1.557694
 H         2.641196         0.087222        -2.094342
 H         3.392787         1.482129         1.976181
