19
Iteration:  2281
 C         0.211061        -0.347818        -0.675166
 C         1.571085        -0.093145        -0.081996
 C         2.284778        -1.312961         0.512908
 C         3.603257        -0.666987         1.017465
 O         4.267378        -0.375128        -0.217387
 C         3.591298         0.973422        -0.350570
 C         2.388763         0.874266        -1.169871
 C         2.986255         0.838486         1.163153
 O         1.585474         0.791835         1.109477
 H        -0.274669        -0.906260         0.154491
 H        -0.395245         0.573860        -0.926561
 H         0.284599        -1.189215        -1.413499
 H         1.749246        -1.714753         1.388892
 H         2.576459        -2.090483        -0.315286
 H         4.305458        -1.177862         1.681989
 H         4.379961         1.810321        -0.413852
 H         1.649672         1.800558        -1.210727
 H         2.461467         0.335462        -2.072269
 H         3.290119         1.480575         2.023105
