19
Iteration:   731
 C         0.019206        -0.305854        -0.426624
 C         1.491289        -0.092681        -0.203452
 C         2.305637        -1.350495         0.322462
 C         3.521995        -0.644621         0.981088
 O         4.476040        -0.187003        -0.127439
 C         3.660171         1.015020        -0.221127
 C         2.408693         0.708728        -1.210012
 C         3.058603         0.774916         1.143356
 O         1.551798         0.735546         1.032695
 H        -0.228417        -0.682305         0.543883
 H        -0.661778         0.533676        -0.719206
 H        -0.121288        -1.105125        -1.172400
 H         1.645254        -1.649941         1.164154
 H         2.576667        -2.122395        -0.390309
 H         4.093536        -1.106620         1.730980
 H         4.063313         2.061911        -0.551634
 H         1.988902         1.551465        -1.683312
 H         2.651729         0.133909        -2.034666
 H         3.278043         1.124513         2.160039
