19
Iteration:   339
 C        -0.134933        -0.155440        -0.463862
 C         1.453544        -0.091196        -0.067888
 C         2.402914        -1.407570         0.187953
 C         3.556840        -0.660755         0.951760
 O         4.582975        -0.105650        -0.034087
 C         3.603715         0.971676        -0.274902
 C         2.396504         0.550914        -1.168531
 C         3.064039         0.732099         1.188199
 O         1.547707         0.752310         1.040782
 H        -0.749162        -0.668494         0.319173
 H        -0.569182         0.806172        -0.705005
 H        -0.132537        -0.713812        -1.399984
 H         1.962361        -2.142229         0.820865
 H         2.660154        -1.831571        -0.767971
 H         3.961594        -1.249297         1.667252
 H         4.078646         1.969950        -0.492004
 H         1.974047         1.496649        -1.518412
 H         2.645294        -0.026824        -2.016622
 H         3.287582         1.510623         1.922837
