19
Iteration:  4729charge 0 multiplicity 1
 C         0.161056        -0.303562        -0.680767
 C         1.534516        -0.022689        -0.183829
 C         2.241734        -1.316835         0.450656
 C         3.536668        -0.761325         1.009213
 O         4.339684        -0.365138        -0.153356
 C         3.665064         0.917857        -0.269418
 C         2.379578         0.846211        -1.100975
 C         2.999646         0.759811         1.244764
 O         1.628674         0.873734         1.017437
 H         0.131852        -0.455612        -1.768525
 H        -0.300290        -1.219440        -0.145633
 H        -0.672055         0.404549        -0.572457
 H         1.487821        -1.607555         1.244071
 H         2.440433        -2.084014        -0.322792
 H         4.209313        -1.283008         1.831421
 H         4.429749         1.698098        -0.280509
 H         1.999184         1.867316        -1.131772
 H         2.552740         0.375929        -2.085659
 H         3.323771         1.504670         1.932585
