19
Iteration:  1228charge 0 multiplicity 1
 C         0.141844        -0.322365        -0.500904
 C         1.552205        -0.108248        -0.084270
 C         2.302105        -1.310540         0.359448
 C         3.585583        -0.625969         0.994497
 O         4.399630        -0.207296        -0.138799
 C         3.617972         0.997663        -0.326495
 C         2.381246         0.748305        -1.151916
 C         2.985132         0.775683         1.115580
 O         1.551454         0.708898         1.037805
 H        -0.422449        -0.897332         0.279887
 H        -0.539248         0.591722        -0.531409
 H         0.042656        -0.771433        -1.548043
 H         1.622938        -1.878465         1.124196
 H         2.669500        -2.083449        -0.313975
 H         3.982383        -1.274083         1.741478
 H         4.283317         1.983266        -0.481975
 H         1.821482         1.674703        -1.336480
 H         2.611184         0.139464        -2.033975
 H         3.235046         1.409795         2.005744
