19
Iteration:  2795
 C         0.062190        -0.117852        -0.371630
 C         1.533910        -0.181412        -0.186985
 C         2.329915        -1.395982         0.235951
 C         3.473529        -0.676972         0.961140
 O         4.447076        -0.161207         0.051605
 C         3.590094         0.981416        -0.297099
 C         2.432731         0.537857        -1.224315
 C         2.951548         0.778852         1.195257
 O         1.593516         0.802385         0.951570
 H        -0.583767        -0.761380         0.373636
 H        -0.096679         0.915543        -0.138722
 H        -0.212581        -0.429633        -1.385522
 H         1.834174        -2.120343         0.872450
 H         2.832037        -1.836644        -0.612462
 H         4.019925        -1.234066         1.684900
 H         4.162871         1.797320        -0.742281
 H         1.993221         1.520127        -1.453708
 H         2.770991         0.120783        -2.224233
 H         3.455744         1.431198         1.993467
