19
Iteration:  4218
 C         0.064752        -0.129188        -0.534650
 C         1.488346        -0.082308        -0.148859
 C         2.276769        -1.322747         0.328091
 C         3.535411        -0.684872         0.910662
 O         4.547590        -0.243108        -0.014777
 C         3.650713         0.935664        -0.255437
 C         2.362290         0.675302        -1.148627
 C         3.010372         0.763737         1.169565
 O         1.548851         0.717873         1.015574
 H        -0.378556        -0.908714         0.076405
 H        -0.445784         0.906322        -0.447818
 H        -0.071124        -0.460350        -1.631649
 H         1.646791        -1.942765         1.054806
 H         2.567310        -1.968363        -0.552471
 H         4.027452        -1.412336         1.597313
 H         4.165323         1.935308        -0.445369
 H         1.752465         1.538322        -1.292086
 H         2.548257         0.191584        -2.070996
 H         3.301722         1.428507         2.016754
