19
Iteration:   432charge 0 multiplicity 1
 C         0.117727        -0.306807        -0.583810
 C         1.501839        -0.064990        -0.062846
 C         2.271741        -1.347296         0.312394
 C         3.564736        -0.666358         0.926428
 O         4.441019        -0.194340        -0.087727
 C         3.591008         0.997278        -0.332532
 C         2.336740         0.762044        -1.078896
 C         3.056264         0.747258         1.142021
 O         1.582583         0.731126         1.102312
 H        -0.566027        -0.666942         0.222719
 H        -0.364663         0.669420        -0.870515
 H         0.022269        -0.897084        -1.512146
 H         1.708189        -1.935052         1.165672
 H         2.462584        -2.058912        -0.539662
 H         4.129622        -1.130432         1.848208
 H         4.251750         1.804625        -0.656047
 H         1.826324         1.604043        -1.527537
 H         2.534723         0.015805        -1.910494
 H         3.652738         1.328191         1.841796
