19
Iteration:  1010charge 0 multiplicity 1
 C         0.097064        -0.356674        -0.558015
 C         1.484507        -0.043219        -0.100106
 C         2.317789        -1.338339         0.354606
 C         3.569849        -0.714301         0.886678
 O         4.387217        -0.148327        -0.121991
 C         3.591891         1.029428        -0.280329
 C         2.333264         0.694966        -1.091547
 C         3.034334         0.744628         1.211372
 O         1.625275         0.780060         1.028870
 H        -0.448817        -0.728655         0.345687
 H        -0.401197         0.501672        -0.992145
 H         0.123971        -1.103773        -1.364960
 H         1.785189        -1.930661         1.218381
 H         2.511988        -2.006874        -0.456802
 H         4.152734        -1.225455         1.713975
 H         4.408662         1.842492        -0.460236
 H         1.884588         1.656413        -1.376302
 H         2.531010         0.045100        -1.972616
 H         3.421081         1.423171         1.926279
