19
Iteration:  4395charge 0 multiplicity 1
 C         0.007360        -0.155394        -0.469761
 C         1.491977        -0.033797        -0.184387
 C         2.264567        -1.320736         0.196740
 C         3.424515        -0.716791         0.943114
 O         4.515295        -0.189180         0.086952
 C         3.644588         0.919820        -0.255718
 C         2.425014         0.594656        -1.215063
 C         2.998664         0.765653         1.100471
 O         1.648221         0.788342         1.077215
 H        -0.294777        -1.053412         0.148851
 H        -0.578804         0.653825         0.035668
 H        -0.167429        -0.267459        -1.531995
 H         1.752895        -2.155241         0.706165
 H         2.709154        -1.693133        -0.758073
 H         3.772416        -1.414571         1.729674
 H         4.380585         1.701592        -0.557253
 H         2.026662         1.515992        -1.586644
 H         2.724740        -0.037346        -1.994000
 H         3.296221         1.300235         1.966209
