19
Iteration:  1690charge 0 multiplicity 1
 C         0.254520        -0.471183        -0.644579
 C         1.533421        -0.069564        -0.091776
 C         2.228614        -1.277747         0.449877
 C         3.512883        -0.740389         0.975329
 O         4.331959        -0.250903        -0.224413
 C         3.594112         1.048862        -0.302617
 C         2.282004         0.760283        -1.073384
 C         3.070251         0.814384         1.181454
 O         1.668214         0.830979         1.080696
 H        -0.338263        -1.089272         0.065128
 H        -0.296117         0.406034        -0.941779
 H         0.511945        -0.964058        -1.573427
 H         1.631592        -1.661222         1.256459
 H         2.264477        -2.151110        -0.222581
 H         3.999964        -1.311754         1.755345
 H         4.073766         2.019178        -0.566492
 H         1.772475         1.788209        -1.175849
 H         2.557108         0.354440        -2.095716
 H         3.426481         1.329099         2.029554
