19
Iteration:  2990
 C         0.042176        -0.243024        -0.594141
 C         1.509290        -0.128633        -0.136757
 C         2.335026        -1.320915         0.434153
 C         3.508698        -0.648485         1.078607
 O         4.401736        -0.326752        -0.164908
 C         3.629869         0.917875        -0.220531
 C         2.370062         0.771456        -1.147352
 C         3.049385         0.746085         1.152556
 O         1.618488         0.820131         0.975388
 H        -0.722110        -0.602117         0.168995
 H        -0.201719         0.724606        -0.924546
 H         0.080221        -0.797421        -1.547460
 H         1.729472        -1.831233         1.217836
 H         2.751015        -1.978076        -0.328642
 H         4.085755        -1.138677         1.822545
 H         4.319154         1.777812        -0.482119
 H         1.816318         1.725213        -1.275459
 H         2.626102         0.340929        -2.164747
 H         3.173899         1.520624         1.910600
