19
Iteration:    45
 C        -0.183795        -0.291305        -0.332843
 C         1.477252        -0.046423        -0.168667
 C         2.353182        -1.272797         0.187424
 C         3.563568        -0.647688         0.958387
 O         4.577716        -0.202386        -0.007560
 C         3.668209         0.986787        -0.241316
 C         2.462767         0.592435        -1.232902
 C         2.998205         0.821750         1.142001
 O         1.541712         0.728096         0.996498
 H        -0.543293        -0.799739         0.587746
 H        -0.618348         0.684935        -0.468971
 H        -0.435571        -0.816758        -1.245307
 H         1.823232        -1.998053         0.815244
 H         2.686594        -1.881441        -0.697869
 H         3.888147        -1.200858         1.828879
 H         4.201035         1.749207        -0.635398
 H         2.129577         1.538110        -1.712442
 H         2.949305        -0.051370        -1.920683
 H         3.255309         1.427719         2.045118
