19
Iteration:  1392
 C         0.174703        -0.384342        -0.625510
 C         1.556482        -0.100981        -0.062175
 C         2.306902        -1.356183         0.457157
 C         3.554630        -0.665504         0.987907
 O         4.308548        -0.287511        -0.238561
 C         3.603635         1.018228        -0.306034
 C         2.331970         0.806516        -1.073838
 C         3.045895         0.814626         1.171451
 O         1.608998         0.781466         1.032751
 H        -0.368148        -0.966514         0.099730
 H        -0.415341         0.510577        -0.885472
 H         0.567548        -0.903564        -1.509940
 H         1.717594        -1.817050         1.338042
 H         2.460072        -2.068794        -0.267794
 H         4.010079        -1.080795         1.806742
 H         4.320822         1.922805        -0.519663
 H         1.759522         1.791882        -1.074447
 H         2.431402         0.376689        -2.073156
 H         3.258772         1.514471         1.950963
