19
Iteration:  4879
 C         0.133069        -0.330288        -0.643709
 C         1.580009        -0.030758        -0.183271
 C         2.241490        -1.260989         0.500181
 C         3.452295        -0.621629         1.001535
 O         4.336091        -0.397531        -0.134849
 C         3.719594         0.926576        -0.240274
 C         2.418316         0.764517        -1.158583
 C         3.047841         0.807409         1.244568
 O         1.582411         0.811567         0.946865
 H        -0.546150         0.338347        -0.162916
 H        -0.141329         0.067495        -1.721364
 H        -0.351006        -1.300635        -0.461631
 H         1.660077        -1.525437         1.411213
 H         2.451506        -2.267183         0.089072
 H         3.949729        -1.133947         1.867928
 H         4.547741         1.690619        -0.532680
 H         1.793532         1.723182        -1.458629
 H         2.710243         0.209943        -2.189326
 H         3.433546         1.286467         2.080142
