19
Iteration:  4678
 C         0.070068        -0.112471        -0.559368
 C         1.471295        -0.040603        -0.130909
 C         2.276146        -1.338985         0.246011
 C         3.504741        -0.769459         0.936140
 O         4.502698        -0.195087        -0.003514
 C         3.583266         0.946038        -0.238137
 C         2.402243         0.594807        -1.192283
 C         3.033293         0.714597         1.215391
 O         1.596599         0.805221         1.068248
 H        -0.224551        -1.080903        -1.013404
 H        -0.674614         0.068982         0.174604
 H        -0.197188         0.481670        -1.426063
 H         1.698880        -1.873835         0.977615
 H         2.615536        -1.894357        -0.614860
 H         4.047355        -1.232229         1.721561
 H         4.204715         1.781453        -0.579449
 H         1.970896         1.513989        -1.579597
 H         2.820427        -0.049636        -1.909946
 H         3.374268         1.370031         2.062629
