19
Iteration:   855
 C         0.099133        -0.448329        -0.646855
 C         1.477715        -0.010388        -0.095321
 C         2.319876        -1.266406         0.406988
 C         3.516688        -0.592893         0.934645
 O         4.417668        -0.290644        -0.204110
 C         3.591647         0.960447        -0.314370
 C         2.377454         0.777754        -1.052655
 C         3.052744         0.816713         1.149315
 O         1.606838         0.754566         1.172897
 H        -0.598199        -0.846304         0.129331
 H        -0.422309         0.432659        -0.939395
 H         0.221550        -1.249720        -1.371522
 H         1.635720        -1.809933         1.079867
 H         2.603169        -1.948770        -0.488657
 H         4.072789        -1.187239         1.643875
 H         4.394384         1.718946        -0.664637
 H         1.821706         1.669161        -1.352820
 H         2.665028         0.355112        -2.053125
 H         3.306501         1.376836         2.103140
