19
Iteration:   803charge 0 multiplicity 1
 C         0.042632        -0.346211        -0.553001
 C         1.545668        -0.077657        -0.132453
 C         2.313136        -1.321140         0.410086
 C         3.575084        -0.628496         0.946622
 O         4.378650        -0.229730        -0.235905
 C         3.662867         1.041822        -0.245637
 C         2.406965         0.686950        -1.093701
 C         3.028486         0.824132         1.172260
 O         1.550798         0.697554         1.066343
 H        -0.492203        -0.964679         0.214322
 H        -0.540734         0.557395        -0.715085
 H         0.090004        -0.832254        -1.541648
 H         1.672203        -1.500660         1.316341
 H         2.481074        -2.098169        -0.295890
 H         4.222561        -1.155849         1.786329
 H         4.417802         1.726191        -0.459697
 H         1.712254         1.570470        -1.343504
 H         2.688071         0.321907        -2.177669
 H         3.294952         1.509607         2.039776
