19
Iteration:  4193charge 0 multiplicity 1
 C         0.069647        -0.339387        -0.618911
 C         1.503833        -0.078268        -0.171251
 C         2.243741        -1.357876         0.475428
 C         3.503110        -0.672932         0.968746
 O         4.239417        -0.323983        -0.211990
 C         3.665847         1.021975        -0.187022
 C         2.543523         0.879936        -1.149874
 C         3.064921         0.760577         1.215520
 O         1.656324         0.778936         1.039031
 H        -0.373309        -1.314822        -0.193219
 H        -0.483851         0.571719        -0.370656
 H        -0.015951        -0.436358        -1.783625
 H         1.499382        -1.817049         1.106808
 H         2.645296        -2.071954        -0.243459
 H         4.156855        -1.249413         1.610460
 H         4.229338         1.893353        -0.318955
 H         1.967642         1.799972        -1.347893
 H         2.901823         0.273725        -2.059338
 H         3.318056         1.276500         2.137930
