19
Iteration:  4983charge 0 multiplicity 1
 C         0.132762        -0.286235        -0.600665
 C         1.542441        -0.060201        -0.129559
 C         2.218679        -1.322090         0.506124
 C         3.490891        -0.656558         1.092670
 O         4.287962        -0.393231        -0.135894
 C         3.702742         0.912419        -0.236565
 C         2.455517         0.708360        -1.228120
 C         3.048985         0.853811         1.167460
 O         1.582429         0.893170         0.926475
 H        -0.504855        -0.999495        -0.014713
 H        -0.441787         0.599990        -0.766049
 H         0.213736        -0.815233        -1.584007
 H         1.671719        -1.685823         1.381437
 H         2.643651        -2.128378        -0.127833
 H         4.114681        -1.215794         1.797186
 H         4.341594         1.765870        -0.419506
 H         1.994555         1.777174        -1.497138
 H         2.759630         0.068716        -2.045579
 H         3.485760         1.613363         1.931751
