19
Iteration:  2558
 C         0.121414        -0.277686        -0.586927
 C         1.521677        -0.050775        -0.122404
 C         2.311025        -1.293461         0.405221
 C         3.530025        -0.707617         0.988074
 O         4.343167        -0.258967        -0.138413
 C         3.646989         0.994557        -0.281093
 C         2.320108         0.724380        -1.151283
 C         3.084982         0.718880         1.196077
 O         1.603058         0.798716         1.011915
 H        -0.485458        -0.609436         0.282677
 H        -0.274399         0.652935        -0.837293
 H         0.171510        -1.081527        -1.310980
 H         1.614349        -1.746738         1.153468
 H         2.741334        -2.048619        -0.197293
 H         4.061380        -1.216516         1.856651
 H         4.278727         1.809844        -0.519612
 H         1.597903         1.504705        -1.425098
 H         2.569493         0.104538        -2.139907
 H         3.464982         1.470593         1.950471
