19
Iteration:  4918charge 0 multiplicity 1
 C        -0.048546        -0.150932        -0.541839
 C         1.418192        -0.121000        -0.134817
 C         2.243609        -1.342790         0.300860
 C         3.447219        -0.622146         0.950944
 O         4.574912        -0.235759         0.056983
 C         3.724026         0.911080        -0.301855
 C         2.485754         0.513467        -1.117412
 C         3.032756         0.806202         1.126613
 O         1.561855         0.870100         0.982508
 H        -0.577525         0.382033         0.290862
 H        -0.137992         0.236258        -1.515890
 H        -0.352673        -1.192894        -0.708119
 H         1.687634        -1.948008         1.027236
 H         2.588640        -1.985605        -0.526925
 H         3.802110        -1.267639         1.740998
 H         4.298005         1.789480        -0.665912
 H         2.091304         1.400274        -1.653758
 H         2.728505        -0.180580        -1.871764
 H         3.366248         1.468107         2.029733
