19
Iteration:  1184
 C        -0.050470        -0.251855        -0.352859
 C         1.494292        -0.097367        -0.142024
 C         2.274186        -1.368645         0.223617
 C         3.549406        -0.659600         0.888744
 O         4.573549        -0.060437         0.035902
 C         3.661608         1.044696        -0.256033
 C         2.419958         0.551291        -1.227573
 C         2.943428         0.750296         1.144094
 O         1.584809         0.705336         1.010298
 H        -0.683852        -0.617558         0.512209
 H        -0.384361         0.794259        -0.616382
 H        -0.288124        -0.934580        -1.234878
 H         1.931453        -2.110590         1.010726
 H         2.555898        -1.804899        -0.700186
 H         4.044263        -1.185208         1.670819
 H         4.022403         2.054940        -0.743089
 H         1.954155         1.391875        -1.750882
 H         2.741306        -0.132711        -2.017261
 H         3.384729         1.376991         1.962858
