19
Iteration:  3548
 C         0.048995        -0.214155        -0.514367
 C         1.489039        -0.083871        -0.143238
 C         2.236868        -1.361163         0.292163
 C         3.519202        -0.677168         0.899836
 O         4.523086        -0.169574        -0.019557
 C         3.662038         0.968908        -0.237348
 C         2.421967         0.622547        -1.098340
 C         2.983254         0.754298         1.212605
 O         1.602699         0.789147         0.953297
 H        -0.552734        -0.235741         0.423225
 H        -0.431405         0.671174        -1.086385
 H        -0.301528        -1.117179        -1.040432
 H         1.790092        -2.053354         1.010173
 H         2.376037        -1.868614        -0.658962
 H         3.950043        -1.226425         1.762343
 H         4.147334         1.830488        -0.767844
 H         2.034016         1.587600        -1.424927
 H         2.650743        -0.131852        -2.038516
 H         3.310634         1.294893         2.111420
