19
Iteration:  1091
 C         0.015984        -0.395181        -0.583652
 C         1.469605        -0.056298        -0.113706
 C         2.322486        -1.369739         0.402827
 C         3.550349        -0.707425         0.885361
 O         4.396272        -0.169425        -0.146665
 C         3.617122         1.018975        -0.270989
 C         2.416330         0.717995        -1.100332
 C         3.043287         0.819505         1.170786
 O         1.629136         0.800120         1.088594
 H        -0.514513        -1.110547         0.036689
 H        -0.650402         0.477230        -0.711573
 H         0.187064        -0.940085        -1.507942
 H         1.675886        -1.692992         1.226214
 H         2.611168        -2.177914        -0.406674
 H         4.135154        -1.205663         1.774482
 H         4.322075         1.722442        -0.569612
 H         1.919757         1.669386        -1.481366
 H         2.654914         0.208254        -2.048289
 H         3.346062         1.404651         2.098609
