19
Iteration:  3582
 C         0.171256        -0.360441        -0.695170
 C         1.513498         0.011644        -0.124339
 C         2.231620        -1.278119         0.493128
 C         3.538303        -0.673528         0.975153
 O         4.318033        -0.325311        -0.210289
 C         3.631509         0.963728        -0.285517
 C         2.423946         0.848163        -1.111647
 C         3.007963         0.741310         1.245551
 O         1.621434         0.755463         1.051866
 H        -0.373847        -0.629295         0.276377
 H        -0.348161         0.494411        -1.223339
 H         0.272041        -1.240532        -1.317672
 H         1.616481        -1.538358         1.340774
 H         2.322991        -2.083678        -0.249949
 H         4.055976        -1.181593         1.848522
 H         4.347111         1.783985        -0.502033
 H         1.980292         1.803932        -1.378744
 H         2.676730         0.151789        -2.097610
 H         3.513484         1.297162         2.033736
