19
Iteration:  2259charge 0 multiplicity 1
 C         0.041595        -0.321197        -0.487914
 C         1.532455        -0.123321        -0.139933
 C         2.256463        -1.343905         0.326075
 C         3.467805        -0.655878         0.992693
 O         4.438271        -0.200688        -0.135987
 C         3.615424         0.971496        -0.281972
 C         2.417479         0.689260        -1.105496
 C         3.069459         0.816614         1.167343
 O         1.618137         0.784220         0.995821
 H        -0.516530        -0.828675         0.293351
 H        -0.397477         0.674880        -0.797439
 H         0.067027        -1.065677        -1.336151
 H         1.598684        -1.739085         1.127658
 H         2.625042        -2.127753        -0.431583
 H         4.079588        -1.005250         1.783817
 H         4.257749         1.872652        -0.573916
 H         1.810288         1.666951        -1.312735
 H         2.676689         0.140975        -1.987232
 H         3.404915         1.451978         1.988629
