19
Iteration:    35
 C        -0.103046        -0.222862        -0.282115
 C         1.419571        -0.068744        -0.287220
 C         2.373564        -1.348658         0.216348
 C         3.493123        -0.635682         0.923076
 O         4.513972        -0.133559         0.024273
 C         3.702706         0.970395        -0.220297
 C         2.454158         0.601011        -1.170466
 C         2.969241         0.738466         1.134485
 O         1.601549         0.734365         0.899773
 H        -0.185235        -0.764534         0.673181
 H        -0.605789         0.712630        -0.189173
 H        -0.503349        -0.852261        -1.052320
 H         1.886154        -1.906691         0.956041
 H         2.838714        -2.083057        -0.506381
 H         4.048182        -1.079746         1.775587
 H         4.229417         1.943352        -0.531108
 H         2.104336         1.541491        -1.686125
 H         2.766987        -0.071742        -1.911075
 H         3.176936         1.317130         2.077196
