19
Iteration:  2306
 C         0.121505        -0.444571        -0.758842
 C         1.451064        -0.088016        -0.103427
 C         2.221643        -1.293026         0.540025
 C         3.546978        -0.671632         0.930672
 O         4.316317        -0.291803        -0.242591
 C         3.671308         0.998726        -0.245457
 C         2.349257         0.761113        -1.007696
 C         3.093597         0.866684         1.136765
 O         1.682502         0.852139         1.086973
 H        -0.515483        -1.045655        -0.015141
 H        -0.343864         0.488294        -1.023444
 H         0.298117        -1.136825        -1.541374
 H         1.801708        -1.576963         1.475553
 H         2.503070        -2.175536        -0.130700
 H         4.104569        -1.405022         1.560972
 H         4.237620         1.846766        -0.624277
 H         1.820740         1.686273        -1.114502
 H         2.578396         0.253506        -1.971869
 H         3.383763         1.327921         2.131315
