19
Iteration:  3749charge 0 multiplicity 1
 C         0.210998        -0.347612        -0.675048
 C         1.511578         0.036990        -0.093084
 C         2.247408        -1.366732         0.555733
 C         3.505401        -0.714929         0.966425
 O         4.315278        -0.321529        -0.334148
 C         3.673130         0.961071        -0.208524
 C         2.454028         0.850542        -1.080619
 C         2.982709         0.720459         1.209760
 O         1.551529         0.872540         1.062245
 H        -0.527051        -0.842346        -0.006798
 H        -0.133371         0.445477        -1.316379
 H         0.428712        -1.146872        -1.469632
 H         1.594475        -1.759624         1.312313
 H         2.424385        -2.182706        -0.120351
 H         4.239256        -1.176834         1.645500
 H         4.398700         1.748879        -0.292884
 H         2.006693         1.712369        -1.483315
 H         2.657221         0.120985        -1.893043
 H         3.327182         1.366183         2.041040
