19
Iteration:  4437
 C         0.164838        -0.283554        -0.650754
 C         1.547790        -0.057256        -0.122032
 C         2.204428        -1.325532         0.485347
 C         3.518186        -0.741566         0.908103
 O         4.338099        -0.317535        -0.197707
 C         3.691851         0.982165        -0.267633
 C         2.493538         0.851712        -1.061182
 C         2.988469         0.754950         1.215722
 O         1.561633         0.758650         1.022440
 H        -0.470765        -0.679934         0.181148
 H        -0.409294         0.692399        -0.881794
 H         0.163270        -0.873059        -1.594668
 H         1.607905        -1.647000         1.362798
 H         2.294313        -2.187409        -0.206836
 H         4.155038        -1.220690         1.713009
 H         4.267996         1.903777        -0.437723
 H         1.927581         1.864317        -1.242597
 H         2.644429         0.386448        -2.041923
 H         3.428908         1.300988         2.021978
