19
Iteration:  2881
 C         0.127789        -0.345735        -0.765048
 C         1.539013        -0.071392        -0.146088
 C         2.293187        -1.291563         0.523073
 C         3.544142        -0.675085         1.015751
 O         4.247354        -0.332786        -0.265864
 C         3.686402         0.927062        -0.221567
 C         2.372688         0.821552        -1.100927
 C         3.044328         0.785210         1.211617
 O         1.656201         0.827229         1.114972
 H        -0.793772        -0.640066        -0.122577
 H        -0.287634         0.488099        -1.295599
 H         0.214536        -1.140642        -1.493973
 H         1.660170        -1.666059         1.316105
 H         2.509568        -2.213368        -0.062324
 H         4.257570        -1.111529         1.680380
 H         4.460347         1.725474        -0.420754
 H         1.778895         1.826102        -1.173259
 H         2.446651         0.285866        -2.139264
 H         3.320850         1.507297         2.087640
