19
Iteration:  3722charge 0 multiplicity 1
 C         0.109186        -0.425443        -0.703175
 C         1.507496        -0.098036        -0.187867
 C         2.158942        -1.232613         0.450645
 C         3.518611        -0.709469         0.914066
 O         4.347096        -0.296677        -0.126394
 C         3.656862         0.993309        -0.213484
 C         2.395471         0.823230        -1.069672
 C         3.079162         0.764289         1.194887
 O         1.701151         0.848029         1.090025
 H        -0.726115        -0.628245         0.050872
 H        -0.184118         0.397717        -1.435790
 H         0.115183        -1.298835        -1.324467
 H         1.485763        -1.685025         1.248072
 H         2.384378        -2.031550        -0.334573
 H         4.105114        -1.377605         1.569087
 H         4.451786         1.748104        -0.437683
 H         1.817488         1.819213        -1.203594
 H         2.583805         0.249384        -2.041435
 H         3.403725         1.379150         2.033876
