19
Iteration:  1461
 C        -0.001105        -0.291759        -0.450404
 C         1.498692        -0.103736        -0.135427
 C         2.344211        -1.394277         0.221183
 C         3.533913        -0.648843         0.950052
 O         4.500905        -0.123519        -0.025722
 C         3.618095         0.996953        -0.293198
 C         2.402427         0.575602        -1.187924
 C         2.958789         0.832616         1.124310
 O         1.617049         0.774657         1.079496
 H        -0.469016        -0.592603         0.523525
 H        -0.527515         0.677040        -0.629705
 H        -0.201099        -0.982479        -1.284576
 H         1.773243        -1.902196         1.003140
 H         2.584356        -2.097951        -0.636824
 H         4.003063        -1.233391         1.751217
 H         4.036140         1.952605        -0.622137
 H         1.857861         1.475763        -1.405624
 H         2.662115         0.182706        -2.169540
 H         3.453971         1.280926         2.032609
