19
Iteration:  1300charge 0 multiplicity 1
 C         0.061057        -0.369094        -0.552652
 C         1.508802        -0.112098        -0.142446
 C         2.341185        -1.317619         0.383358
 C         3.511007        -0.670899         0.949996
 O         4.396000        -0.188388        -0.126555
 C         3.636962         1.016830        -0.338660
 C         2.387219         0.733867        -1.141458
 C         3.014502         0.820229         1.183649
 O         1.623379         0.723505         1.108686
 H        -0.594349        -0.577393         0.292012
 H        -0.420796         0.542966        -0.836031
 H        -0.107753        -0.990481        -1.394626
 H         1.809781        -1.904385         1.051815
 H         2.507663        -2.021761        -0.520062
 H         4.124809        -1.157075         1.784979
 H         4.234699         1.785943        -0.681458
 H         1.832063         1.682911        -1.284693
 H         2.681366         0.156895        -2.056279
 H         3.410667         1.479827         1.994759
