19
Iteration:  1276
 C         0.225589        -0.480177        -0.683627
 C         1.456666        -0.022516        -0.059795
 C         2.238707        -1.285605         0.473315
 C         3.562744        -0.693388         0.907717
 O         4.393582        -0.257439        -0.262746
 C         3.586353         1.001042        -0.256459
 C         2.288678         0.788803        -1.055354
 C         3.082666         0.793473         1.176998
 O         1.618540         0.827334         1.117599
 H        -0.496966        -0.966252        -0.038850
 H        -0.441729         0.262949        -1.153307
 H         0.581806        -1.030262        -1.537602
 H         1.689230        -1.786532         1.267981
 H         2.314188        -2.096395        -0.298636
 H         4.166707        -1.170661         1.806841
 H         4.149457         1.892860        -0.457498
 H         1.877748         1.779094        -1.210578
 H         2.533756         0.191317        -1.920633
 H         3.449494         1.364330         1.994464
