19
Iteration:  2600
 C         0.173368        -0.464033        -0.697456
 C         1.464386        -0.026748        -0.077224
 C         2.145111        -1.247056         0.515482
 C         3.548049        -0.660816         0.928240
 O         4.381617        -0.318080        -0.200998
 C         3.723950         0.994402        -0.311806
 C         2.338590         0.814629        -1.025695
 C         3.106971         0.726203         1.129198
 O         1.612247         0.867563         1.087104
 H        -0.357173        -1.233015        -0.051430
 H        -0.563331         0.293795        -0.835755
 H         0.464542        -0.827854        -1.662674
 H         1.573899        -1.587478         1.422123
 H         2.065280        -2.089686        -0.212477
 H         4.154988        -1.291536         1.552053
 H         4.421223         1.767524        -0.560455
 H         1.927987         1.784103        -1.226986
 H         2.338768         0.308351        -2.059918
 H         3.384001         1.223790         2.092732
