19
Iteration:  4390
 C         0.012103        -0.139471        -0.408372
 C         1.477836        -0.047558        -0.171457
 C         2.286656        -1.325720         0.172060
 C         3.419852        -0.710999         0.941622
 O         4.521935        -0.216771         0.084267
 C         3.710613         0.946045        -0.244461
 C         2.427116         0.604464        -1.247312
 C         2.959993         0.761708         1.127052
 O         1.603310         0.769155         1.041600
 H        -0.391627        -0.987634         0.103159
 H        -0.551803         0.705117         0.014704
 H        -0.132504        -0.156472        -1.521992
 H         1.864965        -2.107883         0.819518
 H         2.724077        -1.880688        -0.660125
 H         3.902006        -1.306266         1.735957
 H         4.285063         1.791755        -0.601995
 H         2.000801         1.605789        -1.676869
 H         2.734322        -0.091134        -2.127290
 H         3.347197         1.302692         2.041175
