19
Iteration:  4170
 C         0.274307        -0.389333        -0.652084
 C         1.534143         0.017969        -0.124262
 C         2.227769        -1.293665         0.379405
 C         3.500847        -0.778626         0.929372
 O         4.301920        -0.348010        -0.233969
 C         3.681453         0.950617        -0.208119
 C         2.389238         0.848406        -1.040073
 C         3.009449         0.785721         1.203982
 O         1.598753         0.876762         1.086352
 H        -0.048552        -1.424653        -0.216123
 H        -0.452377         0.393505        -0.507440
 H         0.363624        -0.572017        -1.774712
 H         1.523395        -1.394626         1.203655
 H         2.160856        -2.174420        -0.248014
 H         4.016173        -1.282734         1.743701
 H         4.261624         1.792050        -0.533211
 H         1.785094         1.807919        -1.118306
 H         2.558319         0.187406        -1.993333
 H         3.329718         1.290920         2.108861
