19
Iteration:   121charge 0 multiplicity 1
 C         0.150716        -0.380322        -0.635547
 C         1.558051        -0.059794        -0.100717
 C         2.245307        -1.364674         0.476228
 C         3.571171        -0.630050         0.988700
 O         4.284198        -0.332997        -0.253358
 C         3.655698         1.066698        -0.292407
 C         2.369054         0.848522        -1.121183
 C         3.038478         0.785059         1.218404
 O         1.615058         0.755025         1.048951
 H        -0.485611        -0.903707         0.145702
 H        -0.419456         0.486563        -0.979270
 H         0.390146        -1.077679        -1.448034
 H         1.656505        -1.569718         1.419600
 H         2.517993        -2.336315        -0.065589
 H         4.162295        -1.153407         1.698005
 H         4.195987         1.894039        -0.489814
 H         1.917960         1.793271        -1.449828
 H         2.688809         0.264069        -1.933729
 H         3.238105         1.438530         2.130162
