19
Iteration:  4598charge 0 multiplicity 1
 C         0.110990        -0.327055        -0.753194
 C         1.490895        -0.070207        -0.119058
 C         2.218521        -1.239512         0.366295
 C         3.449760        -0.700394         0.922666
 O         4.335596        -0.318083        -0.215169
 C         3.706181         0.957935        -0.215494
 C         2.425115         0.717442        -1.045351
 C         3.056313         0.816051         1.281342
 O         1.662287         0.811337         1.113667
 H        -0.303969        -1.240667        -0.358738
 H        -0.771595         0.399253        -0.468551
 H         0.177648        -0.105967        -1.832600
 H         1.745743        -1.718464         1.263157
 H         2.505621        -2.161878        -0.176865
 H         4.196004        -1.296698         1.588438
 H         4.373236         1.831510        -0.376703
 H         2.061140         1.661453        -1.232145
 H         2.538115         0.292196        -2.029302
 H         3.332692         1.369132         2.164272
