19
Iteration:  1374charge 0 multiplicity 1
 C         0.032410        -0.378924        -0.566535
 C         1.465731        -0.094177        -0.131703
 C         2.326489        -1.287589         0.352765
 C         3.570869        -0.651318         0.953048
 O         4.471453        -0.213553        -0.143428
 C         3.596390         0.971479        -0.244036
 C         2.377170         0.694246        -1.143856
 C         3.004618         0.809571         1.164924
 O         1.590599         0.821624         1.093818
 H        -0.538739        -0.926626         0.252335
 H        -0.481875         0.614838        -0.684294
 H        -0.114720        -0.920388        -1.514545
 H         1.785824        -1.871018         1.121818
 H         2.656661        -2.059144        -0.433209
 H         4.277698        -1.291478         1.581578
 H         4.239773         1.767091        -0.620808
 H         1.922895         1.620270        -1.421901
 H         2.652719         0.057572        -1.988207
 H         3.437918         1.300266         2.051252
