19
Iteration:  2053charge 0 multiplicity 1
 C        -0.048800        -0.264738        -0.470042
 C         1.499081        -0.106995        -0.137459
 C         2.323289        -1.379811         0.282307
 C         3.549788        -0.690976         0.880318
 O         4.545015        -0.087042        -0.038461
 C         3.617174         0.968643        -0.294134
 C         2.435753         0.577573        -1.171946
 C         2.961962         0.787940         1.176756
 O         1.590557         0.830373         1.091951
 H        -0.583529        -0.751615         0.315822
 H        -0.565074         0.693429        -0.643828
 H        -0.426250        -0.815616        -1.344104
 H         1.787930        -1.971735         0.938769
 H         2.626850        -2.089943        -0.583604
 H         4.044409        -1.343099         1.597300
 H         4.280303         1.865655        -0.591129
 H         1.939905         1.413994        -1.660439
 H         2.602844        -0.112038        -1.917329
 H         3.385958         1.300723         2.011733
