19
Iteration:  4717charge 0 multiplicity 1
 C         0.097944        -0.265828        -0.664084
 C         1.522116         0.002153        -0.146000
 C         2.284053        -1.383167         0.513453
 C         3.540387        -0.704003         0.982049
 O         4.327909        -0.377500        -0.141840
 C         3.654386         0.960805        -0.228700
 C         2.480407         0.910184        -1.153846
 C         3.051657         0.726542         1.171984
 O         1.529141         0.813956         0.991062
 H         0.232514        -0.779168        -1.604184
 H        -0.395927        -1.045333         0.045739
 H        -0.306588         0.760772        -0.626961
 H         1.684534        -1.792822         1.390350
 H         2.428120        -2.289475        -0.127699
 H         4.090498        -1.339521         1.814571
 H         4.298603         1.788674        -0.583026
 H         1.922157         1.875507        -1.321172
 H         2.715453         0.562668        -2.225844
 H         3.357185         1.088782         2.112706
