19
Iteration:  4381charge 0 multiplicity 1
 C        -0.023754        -0.119452        -0.338110
 C         1.469345        -0.088308        -0.175195
 C         2.336712        -1.375591         0.171767
 C         3.504441        -0.669446         0.949436
 O         4.529882        -0.265874         0.038767
 C         3.754777         0.969420        -0.250324
 C         2.471676         0.657888        -1.248981
 C         2.945594         0.752499         1.213468
 O         1.507178         0.745402         0.948594
 H        -0.610955        -0.957912        -0.040596
 H        -0.370331         0.935964        -0.029770
 H        -0.293357        -0.109212        -1.451686
 H         1.726144        -1.819549         0.979123
 H         2.595966        -2.121974        -0.590309
 H         3.956987        -1.179532         1.866938
 H         4.206828         1.916151        -0.494463
 H         2.013886         1.648793        -1.716115
 H         2.663838        -0.063432        -2.100064
 H         3.331623         1.323183         2.079421
