19
Iteration:  3872
 C         0.167627        -0.299135        -0.783909
 C         1.521436        -0.106473        -0.047322
 C         2.179762        -1.333959         0.445759
 C         3.485085        -0.689153         1.035968
 O         4.395697        -0.368892        -0.150330
 C         3.627387         1.023889        -0.326202
 C         2.377170         0.781403        -1.073927
 C         3.116338         0.798895         1.144244
 O         1.618965         0.852374         1.130311
 H        -0.639713        -0.670759        -0.107129
 H        -0.408868         0.536216        -1.374300
 H         0.274087        -1.151089        -1.578994
 H         1.539197        -1.936778         1.083690
 H         2.540853        -2.076396        -0.264563
 H         4.117576        -1.291697         1.722529
 H         4.334999         1.889413        -0.501588
 H         1.779727         1.750210        -1.130552
 H         2.352253         0.452136        -2.043834
 H         3.495238         1.431043         1.949875
