19
Iteration:  1088
 C         0.012483        -0.376259        -0.583584
 C         1.480794        -0.091577        -0.117852
 C         2.320755        -1.382936         0.375204
 C         3.555148        -0.722214         0.878372
 O         4.404592        -0.159562        -0.134076
 C         3.625460         1.006111        -0.266356
 C         2.412929         0.705938        -1.096190
 C         3.008977         0.842072         1.157417
 O         1.621596         0.810585         1.087051
 H        -0.442486        -1.007882         0.171812
 H        -0.667916         0.496324        -0.588592
 H         0.051129        -0.942714        -1.530260
 H         1.679170        -1.744443         1.276798
 H         2.610599        -2.078593        -0.355482
 H         4.213578        -1.135945         1.753462
 H         4.358432         1.820794        -0.570579
 H         1.982690         1.642647        -1.499239
 H         2.733245         0.217913        -2.015443
 H         3.378177         1.320401         2.108514
