19
Iteration:  4730charge 0 multiplicity 1
 C         0.157451        -0.309887        -0.681043
 C         1.543519        -0.023116        -0.183674
 C         2.236695        -1.305379         0.439051
 C         3.524362        -0.759118         1.011413
 O         4.343946        -0.362448        -0.155967
 C         3.665988         0.911169        -0.259260
 C         2.377501         0.835710        -1.097096
 C         3.000931         0.763032         1.239982
 O         1.639083         0.875716         1.024666
 H         0.146706        -0.448184        -1.795327
 H        -0.300437        -1.229527        -0.178048
 H        -0.676726         0.396636        -0.541559
 H         1.482062        -1.610810         1.219388
 H         2.424971        -2.075151        -0.327169
 H         4.208597        -1.274940         1.810989
 H         4.434228         1.691741        -0.296832
 H         1.984673         1.823847        -1.137017
 H         2.520970         0.385953        -2.052385
 H         3.285377         1.551290         1.928608
