19
Iteration:   175charge 0 multiplicity 1
 C        -0.104714        -0.185364        -0.354292
 C         1.483161        -0.127504        -0.179669
 C         2.321760        -1.263538         0.200456
 C         3.541392        -0.662688         0.982988
 O         4.562887        -0.147857         0.044811
 C         3.677500         0.972236        -0.265666
 C         2.415539         0.571674        -1.252153
 C         3.000870         0.804436         1.101430
 O         1.569440         0.675702         0.990659
 H        -0.485182        -0.698866         0.606463
 H        -0.545335         0.825011        -0.399584
 H        -0.510315        -0.814538        -1.187180
 H         1.875532        -2.008914         0.935223
 H         2.756848        -1.814098        -0.708212
 H         3.954686        -1.293672         1.702532
 H         3.979417         2.000697        -0.460830
 H         2.084838         1.472314        -1.727741
 H         2.758872        -0.018336        -2.018892
 H         3.308106         1.367549         2.057190
