19
Iteration:  4789
 C        -0.036313        -0.072649        -0.467450
 C         1.552047        -0.184380        -0.261349
 C         2.258139        -1.334259         0.334388
 C         3.500471        -0.658901         0.935577
 O         4.505447        -0.233894         0.046446
 C         3.604206         0.960152        -0.214778
 C         2.491285         0.614303        -1.152177
 C         3.025377         0.690399         1.178922
 O         1.569897         0.782543         0.891867
 H        -0.231971         0.686002        -1.284631
 H        -0.408963        -1.032147        -0.746502
 H        -0.309219         0.345017         0.524814
 H         1.639718        -1.712188         1.135020
 H         2.584463        -2.106554        -0.382261
 H         3.995404        -1.189020         1.693913
 H         4.166874         1.848556        -0.614823
 H         1.858827         1.515835        -1.402429
 H         2.829813        -0.011977        -2.026180
 H         3.245618         1.470461         2.013835
