19
Iteration:  3439
 C         0.174286        -0.355496        -0.704642
 C         1.556367        -0.082178        -0.097421
 C         2.264354        -1.352549         0.462308
 C         3.528418        -0.639907         0.995031
 O         4.340344        -0.383231        -0.174081
 C         3.679501         0.949798        -0.317336
 C         2.389304         0.830146        -1.091893
 C         2.992231         0.825042         1.155585
 O         1.554167         0.862442         1.159405
 H        -0.376810        -1.010877        -0.080331
 H        -0.410693         0.565395        -0.954157
 H         0.402734        -0.856060        -1.627621
 H         1.552413        -1.794290         1.106389
 H         2.535346        -1.875750        -0.416018
 H         4.180034        -1.170012         1.692333
 H         4.333300         1.685810        -0.809367
 H         1.902451         1.764146        -1.198179
 H         2.544630         0.278861        -2.116659
 H         3.322489         1.420140         1.990223
