19
Iteration:  3327
 C         0.163283        -0.369092        -0.672031
 C         1.498643        -0.067442        -0.132533
 C         2.271568        -1.260666         0.451495
 C         3.546484        -0.666651         1.019036
 O         4.343600        -0.375594        -0.208677
 C         3.636057         0.959197        -0.278249
 C         2.428724         0.832423        -1.057360
 C         3.053214         0.853842         1.162659
 O         1.561406         0.754671         1.065708
 H        -0.456929        -0.831807         0.095159
 H        -0.313200         0.560703        -0.916233
 H         0.194962        -0.897000        -1.676452
 H         1.557332        -1.672647         1.166700
 H         2.426173        -2.049311        -0.246588
 H         4.190227        -1.127882         1.747456
 H         4.421309         1.750773        -0.365843
 H         1.786564         1.754796        -1.241146
 H         2.493287         0.307908        -2.030233
 H         3.358550         1.529198         2.001315
