19
Iteration:  4785
 C        -0.009521        -0.088502        -0.494072
 C         1.533433        -0.155264        -0.267429
 C         2.269366        -1.275943         0.318226
 C         3.499974        -0.701263         0.955189
 O         4.523112        -0.230604         0.023476
 C         3.577985         0.930202        -0.204957
 C         2.446520         0.580178        -1.147778
 C         3.058001         0.748240         1.205028
 O         1.556486         0.782829         0.908665
 H        -0.258310         0.562621        -1.381066
 H        -0.491133        -1.066516        -0.682011
 H        -0.353589         0.325619         0.460226
 H         1.683719        -1.785754         1.116957
 H         2.484368        -2.089937        -0.377005
 H         4.091604        -1.307877         1.696887
 H         4.190910         1.773550        -0.493235
 H         2.124988         1.534473        -1.479351
 H         2.784469         0.095673        -1.996977
 H         3.277826         1.441522         2.012353
