19
Iteration:  3140charge 0 multiplicity 1
 C         0.130482        -0.328319        -0.656012
 C         1.548485        -0.106230        -0.145201
 C         2.241922        -1.274596         0.454652
 C         3.459024        -0.698326         0.978361
 O         4.323614        -0.296866        -0.134801
 C         3.647366         1.019109        -0.288645
 C         2.427781         0.738978        -1.165466
 C         3.027434         0.806234         1.193221
 O         1.626217         0.786736         1.091821
 H        -0.497493        -1.049153        -0.055266
 H        -0.282362         0.662951        -0.571119
 H         0.193570        -0.591733        -1.698356
 H         1.676568        -1.686080         1.283768
 H         2.540647        -2.147904        -0.160990
 H         4.108147        -1.280000         1.628060
 H         4.451909         1.782910        -0.404273
 H         1.914102         1.700532        -1.444257
 H         2.639841         0.200027        -2.012792
 H         3.577857         1.461182         1.837211
