19
Iteration:   404
 C         0.128749        -0.510983        -0.715450
 C         1.485452        -0.064391        -0.085644
 C         2.269383        -1.236718         0.404337
 C         3.577548        -0.695712         0.924866
 O         4.297310        -0.321776        -0.260657
 C         3.625093         1.015637        -0.237224
 C         2.374915         0.844703        -1.023332
 C         3.143126         0.807284         1.253074
 O         1.584248         0.844645         1.120864
 H        -0.566757        -1.045349        -0.075508
 H        -0.450217         0.322115        -1.095131
 H         0.316005        -1.124483        -1.586103
 H         1.736865        -1.602257         1.220429
 H         2.463957        -2.054537        -0.271299
 H         4.071621        -1.295307         1.587737
 H         4.371383         1.828125        -0.529411
 H         1.745969         1.777594        -1.074718
 H         2.493248         0.389782        -2.009197
 H         3.773415         1.297841         1.987913
