19
Iteration:  3090charge 0 multiplicity 1
 C        -0.057851        -0.105644        -0.377760
 C         1.509723        -0.118055        -0.201803
 C         2.350899        -1.374840         0.180631
 C         3.513731        -0.681212         1.010539
 O         4.495664        -0.215746         0.108539
 C         3.612085         0.974416        -0.275387
 C         2.431827         0.573200        -1.311549
 C         2.947930         0.872984         1.156397
 O         1.610119         0.739935         1.013969
 H        -0.444182        -0.782479         0.374606
 H        -0.488374         0.882687        -0.213710
 H        -0.255520        -0.479287        -1.435335
 H         1.766258        -2.067165         0.839806
 H         2.579424        -1.923947        -0.710697
 H         4.074016        -1.222064         1.760199
 H         4.303199         1.732878        -0.648145
 H         2.143689         1.393928        -1.935690
 H         2.903825        -0.278860        -1.968020
 H         3.340199         1.442951         1.974277
