19
Iteration:  4260charge 0 multiplicity 1
 C        -0.040802        -0.126732        -0.483654
 C         1.484140        -0.083079        -0.227582
 C         2.294027        -1.361501         0.253082
 C         3.530428        -0.723281         0.917178
 O         4.478713        -0.241779        -0.069693
 C         3.619415         1.066947        -0.168304
 C         2.464646         0.650330        -1.175157
 C         2.988688         0.745013         1.197826
 O         1.624463         0.723157         1.046714
 H        -0.609236        -0.082908         0.451706
 H        -0.418683         0.787779        -1.030266
 H        -0.449880        -1.096673        -0.956287
 H         1.822351        -2.008969         0.985929
 H         2.740692        -1.870415        -0.585718
 H         4.008668        -1.331762         1.690237
 H         4.280769         1.852077        -0.363458
 H         2.178338         1.599343        -1.655589
 H         2.822723        -0.078151        -1.920567
 H         3.204482         1.287966         2.153951
