19
Iteration:  1831charge 0 multiplicity 1
 C         0.066969        -0.421009        -0.651125
 C         1.509139        -0.139031        -0.123945
 C         2.321398        -1.348687         0.454302
 C         3.552612        -0.657123         1.052752
 O         4.341169        -0.296638        -0.284958
 C         3.651712         1.026779        -0.268208
 C         2.396869         0.833682        -1.094759
 C         3.052290         0.817526         1.188704
 O         1.572037         0.805282         1.070500
 H        -0.569508        -0.929320         0.137091
 H        -0.414209         0.510292        -0.959665
 H         0.064021        -1.006628        -1.572014
 H         1.725964        -1.810020         1.366409
 H         2.719101        -2.240355        -0.097890
 H         4.204997        -0.923145         1.877433
 H         4.335422         2.032208        -0.501462
 H         1.962990         1.824109        -1.215558
 H         2.613647         0.333013        -2.064059
 H         3.445559         1.497381         1.927569
