19
Iteration:  3694charge 0 multiplicity 1
 C         0.046573        -0.149040        -0.521469
 C         1.494202        -0.076213        -0.209553
 C         2.344813        -1.334503         0.271237
 C         3.549977        -0.657013         0.960420
 O         4.501919        -0.288862        -0.012342
 C         3.590473         0.923627        -0.255271
 C         2.431866         0.658342        -1.146645
 C         2.991731         0.786770         1.143052
 O         1.523270         0.776773         1.050150
 H        -0.524903        -0.425176         0.374265
 H        -0.472893         0.699670        -0.894036
 H        -0.151879        -0.993453        -1.241064
 H         1.769857        -1.912462         0.950104
 H         2.717177        -1.850799        -0.606511
 H         4.028827        -1.113922         1.851680
 H         4.284167         1.677264        -0.533142
 H         2.058595         1.650167        -1.217494
 H         2.529362         0.033660        -2.048784
 H         3.279843         1.377018         2.023426
