19
Iteration:   407charge 0 multiplicity 1
 C         0.127832        -0.484736        -0.696870
 C         1.506734        -0.064044        -0.069708
 C         2.246257        -1.213435         0.388114
 C         3.555616        -0.712183         0.930454
 O         4.325796        -0.313290        -0.258322
 C         3.621735         1.013537        -0.242536
 C         2.367599         0.815502        -1.062572
 C         3.121194         0.829589         1.237833
 O         1.596622         0.830529         1.151066
 H        -0.581647        -1.053249        -0.088816
 H        -0.529941         0.304518        -1.238021
 H         0.401285        -1.082017        -1.629113
 H         1.747080        -1.682773         1.255842
 H         2.594999        -2.135257        -0.309232
 H         4.150591        -1.333809         1.628521
 H         4.262180         1.790773        -0.509467
 H         1.843504         1.743082        -1.086450
 H         2.378501         0.426316        -2.024044
 H         3.723138         1.314447         2.066954
