19
Iteration:  2727charge 0 multiplicity 1
 C         0.182875        -0.353883        -0.609997
 C         1.602340        -0.006283        -0.127827
 C         2.295005        -1.369341         0.468504
 C         3.488088        -0.640049         1.035211
 O         4.195790        -0.336884        -0.218040
 C         3.592889         0.919689        -0.274415
 C         2.361419         0.896756        -1.195549
 C         3.074297         0.756998         1.231956
 O         1.667022         0.810322         1.029237
 H        -0.427939        -0.963393         0.095387
 H        -0.252119         0.527331        -1.148401
 H         0.555704        -1.074000        -1.322203
 H         1.567004        -1.726711         1.130519
 H         2.884055        -2.123591        -0.139902
 H         4.096974        -1.176266         1.770734
 H         4.424423         1.709352        -0.332888
 H         1.717234         1.860194        -1.210319
 H         2.476613         0.412789        -2.122708
 H         3.298707         1.307338         2.125986
