19
Iteration:  3651charge 0 multiplicity 1
 C         0.057115        -0.152314        -0.445845
 C         1.494154        -0.077781        -0.202393
 C         2.224631        -1.369183         0.276128
 C         3.521032        -0.662823         0.874533
 O         4.530863        -0.157725         0.039469
 C         3.637414         0.941211        -0.274674
 C         2.526132         0.583068        -1.176046
 C         2.929748         0.727243         1.114922
 O         1.549458         0.776264         1.028125
 H        -0.285645        -0.932952         0.257897
 H        -0.374005         0.747141        -0.118339
 H        -0.414021        -0.315258        -1.452397
 H         1.705870        -1.741378         1.181689
 H         2.405124        -2.136148        -0.487003
 H         3.970159        -1.308021         1.657729
 H         4.050127         1.911195        -0.448142
 H         2.012593         1.540052        -1.598617
 H         3.010019        -0.169237        -1.850286
 H         3.270737         1.410030         1.938580
