19
Iteration:    55charge 0 multiplicity 1
 C        -0.066486        -0.309407        -0.425306
 C         1.431595        -0.119354        -0.129013
 C         2.313375        -1.301462         0.221005
 C         3.560438        -0.646473         0.969455
 O         4.566714        -0.212150        -0.016767
 C         3.636135         0.965143        -0.320734
 C         2.482458         0.649489        -1.222604
 C         2.974035         0.831798         1.146641
 O         1.579498         0.793102         1.095796
 H        -0.703130        -0.769477         0.362919
 H        -0.564966         0.664088        -0.525730
 H        -0.217611        -0.974459        -1.284430
 H         1.702021        -1.999957         0.880981
 H         2.619538        -1.684411        -0.772581
 H         3.995103        -1.318540         1.658136
 H         4.164436         1.763245        -0.440196
 H         1.973047         1.492744        -1.703500
 H         2.627090        -0.055154        -2.044163
 H         3.408702         1.526957         1.900422
