19
Iteration:  2913
 C         0.083485        -0.237698        -0.512270
 C         1.533237        -0.124785        -0.117249
 C         2.228973        -1.336248         0.404752
 C         3.496148        -0.661311         0.976015
 O         4.452814        -0.271225        -0.095046
 C         3.668528         0.939908        -0.268822
 C         2.446156         0.722856        -1.173469
 C         3.005716         0.783276         1.103892
 O         1.593916         0.791755         1.000428
 H        -0.638658        -0.927470         0.038387
 H        -0.313625         0.754087        -0.588230
 H         0.061344        -0.601346        -1.523754
 H         1.658157        -1.843480         1.183383
 H         2.535527        -1.999908        -0.445098
 H         3.982264        -1.147269         1.820761
 H         4.333608         1.858269        -0.390954
 H         1.784166         1.653989        -1.236554
 H         2.457897         0.260011        -2.183411
 H         3.165322         1.403439         2.047388
