19
Iteration:  3587
 C         0.220721        -0.330716        -0.687791
 C         1.542852         0.010258        -0.095060
 C         2.202085        -1.270352         0.455678
 C         3.535025        -0.638102         0.975922
 O         4.307033        -0.361389        -0.215150
 C         3.632431         0.956561        -0.308625
 C         2.399999         0.804614        -1.100527
 C         3.024316         0.770272         1.268818
 O         1.612535         0.764702         1.048759
 H        -0.271307        -0.767437         0.165736
 H        -0.318596         0.422972        -1.202378
 H         0.479694        -1.220267        -1.306508
 H         1.562898        -1.672970         1.300328
 H         2.342798        -2.154414        -0.192207
 H         4.133617        -1.199499         1.686985
 H         4.408101         1.688900        -0.472625
 H         1.827735         1.769206        -1.372133
 H         2.516269         0.425426        -2.070722
 H         3.229076         1.398754         2.185955
