19
Iteration:  4824
 C         0.045582        -0.209184        -0.568321
 C         1.499382        -0.033790        -0.161081
 C         2.245437        -1.269412         0.333539
 C         3.536534        -0.646653         1.002933
 O         4.447297        -0.316358        -0.040678
 C         3.650868         0.902439        -0.275568
 C         2.489667         0.624241        -1.144143
 C         2.986576         0.794289         1.183642
 O         1.579512         0.818565         1.033155
 H        -0.421144         0.746451        -0.733705
 H        -0.100599        -0.813543        -1.518772
 H        -0.585341        -0.748313         0.154950
 H         1.598331        -1.845979         1.018262
 H         2.661498        -1.962473        -0.423127
 H         3.907807        -1.296128         1.799746
 H         4.214638         1.791150        -0.616553
 H         1.928556         1.501283        -1.655450
 H         2.802273        -0.062014        -2.041456
 H         3.433874         1.485933         1.854201
