19
Iteration:  2420
 C         0.117029        -0.374516        -0.647678
 C         1.437211         0.012952        -0.021400
 C         2.236848        -1.331310         0.450327
 C         3.506691        -0.716038         0.960055
 O         4.381243        -0.273946        -0.222010
 C         3.646150         1.042283        -0.265934
 C         2.442384         0.666883        -1.102040
 C         3.104426         0.820064         1.083701
 O         1.596087         0.833640         1.109968
 H        -0.566600        -0.928170        -0.039795
 H        -0.598639         0.452122        -0.944288
 H         0.177500        -1.106382        -1.510312
 H         1.757667        -1.859956         1.344819
 H         2.468842        -2.012612        -0.365718
 H         4.113597        -1.106096         1.798770
 H         4.293629         1.936379        -0.570432
 H         1.952228         1.637604        -1.336410
 H         2.712322         0.084898        -1.934551
 H         3.477519         1.281899         2.029947
