19
Iteration:   680charge 0 multiplicity 1
 C         0.144611        -0.417518        -0.757626
 C         1.499847        -0.039757        -0.025202
 C         2.282845        -1.254208         0.481008
 C         3.565254        -0.622924         0.957425
 O         4.364969        -0.303583        -0.211524
 C         3.606742         0.968580        -0.341340
 C         2.305524         0.800741        -1.049106
 C         3.062048         0.783697         1.144876
 O         1.661594         0.766768         1.194826
 H        -0.568582        -0.911799        -0.069040
 H        -0.366848         0.443038        -1.149229
 H         0.332843        -1.079120        -1.598279
 H         1.700040        -1.606304         1.280679
 H         2.460052        -2.135511        -0.339684
 H         4.171404        -1.205215         1.706168
 H         4.126405         1.869141        -0.642712
 H         1.556387         1.606462        -1.446252
 H         2.526682         0.243201        -2.044622
 H         3.352591         1.516448         1.821573
