19
Iteration:  1775
 C        -0.145001        -0.203241        -0.363921
 C         1.413105        -0.162121        -0.213275
 C         2.303983        -1.297124         0.172323
 C         3.597352        -0.622724         0.908559
 O         4.572852        -0.094256         0.040607
 C         3.645053         0.977168        -0.211168
 C         2.409789         0.517424        -1.188827
 C         2.981298         0.810213         1.142439
 O         1.604652         0.695523         0.973372
 H        -0.495669        -0.549479         0.651035
 H        -0.483824         0.842324        -0.498551
 H        -0.423476        -0.948246        -1.109698
 H         1.998440        -2.104689         1.007755
 H         2.807741        -1.754220        -0.598572
 H         4.055759        -1.113804         1.733971
 H         4.235790         1.972624        -0.599831
 H         2.150465         1.388090        -1.719814
 H         2.885885        -0.163080        -1.904552
 H         3.277496         1.350502         2.023028
