19
Iteration:  1007charge 0 multiplicity 1
 C         0.108738        -0.369293        -0.580493
 C         1.505576        -0.052927        -0.107909
 C         2.293642        -1.335722         0.371725
 C         3.581128        -0.739996         0.901776
 O         4.367727        -0.162215        -0.137336
 C         3.589901         1.049812        -0.281256
 C         2.330298         0.720273        -1.118632
 C         3.038384         0.740029         1.224464
 O         1.626164         0.802225         1.058318
 H        -0.421110        -0.804534         0.341165
 H        -0.416009         0.496246        -1.018840
 H         0.108150        -1.163060        -1.359476
 H         1.771845        -1.860685         1.119849
 H         2.571556        -2.147558        -0.362815
 H         4.156808        -1.163563         1.632503
 H         4.354687         1.848401        -0.433774
 H         1.853748         1.650590        -1.337238
 H         2.578230         0.064696        -1.966115
 H         3.480522         1.472905         1.896859
