19
Iteration:  4622charge 0 multiplicity 1
 C         0.115822        -0.262696        -0.542281
 C         1.546795        -0.016855        -0.171087
 C         2.257350        -1.364449         0.343602
 C         3.514106        -0.776385         0.983356
 O         4.356715        -0.310554        -0.067099
 C         3.652264         1.021978        -0.222006
 C         2.456595         0.820263        -1.183335
 C         2.987557         0.694448         1.164127
 O         1.592154         0.796217         0.963879
 H        -0.246100        -1.220330        -0.163582
 H        -0.400311         0.404098         0.210001
 H        -0.244949         0.133384        -1.471764
 H         1.540650        -1.879919         0.991612
 H         2.554834        -2.130247        -0.369635
 H         4.108037        -0.984272         1.892961
 H         4.353523         1.859149        -0.136808
 H         2.063274         1.778176        -1.470843
 H         2.681745         0.333931        -2.092592
 H         3.355482         1.308695         1.951380
