19
Iteration:  4310
 C         0.030529        -0.392973        -0.775314
 C         1.493558        -0.013013        -0.063366
 C         2.187063        -1.257587         0.322320
 C         3.514122        -0.692946         1.022620
 O         4.351879        -0.325680        -0.203575
 C         3.664583         0.932947        -0.215150
 C         2.388068         0.855447        -1.044278
 C         3.164383         0.753047         1.221085
 O         1.653080         0.828040         1.121243
 H        -0.900808        -0.667105        -0.174622
 H        -0.283393         0.309794        -1.512512
 H         0.161167        -1.335942        -1.246474
 H         1.652252        -1.790703         1.147533
 H         2.623183        -1.966579        -0.413695
 H         4.144934        -1.273225         1.681170
 H         4.460627         1.727513        -0.464139
 H         1.920570         1.843537        -1.121111
 H         2.551436         0.388768        -2.070402
 H         3.596655         1.283890         2.044961
