19
Iteration:   471charge 0 multiplicity 1
 C        -0.079593        -0.151785        -0.291253
 C         1.506167        -0.131111        -0.210192
 C         2.366130        -1.398072         0.241609
 C         3.597329        -0.694849         0.962966
 O         4.517460        -0.131508         0.000742
 C         3.599363         1.068122        -0.258370
 C         2.488975         0.604416        -1.215623
 C         3.005342         0.736798         1.076902
 O         1.502116         0.710882         0.949503
 H        -0.456020        -0.559134         0.621132
 H        -0.316897         0.935843        -0.275780
 H        -0.526057        -0.714073        -1.128831
 H         1.686906        -1.844555         0.866932
 H         2.695742        -2.133281        -0.594727
 H         4.036139        -1.248293         1.735212
 H         4.040334         2.055715        -0.434623
 H         2.045802         1.520792        -1.723792
 H         2.882316        -0.117099        -1.888330
 H         3.112924         1.205711         2.105365
