19
Iteration:  3771
 C         0.105816        -0.251777        -0.624738
 C         1.556319        -0.094493        -0.178346
 C         2.255496        -1.337760         0.371062
 C         3.440567        -0.654853         1.024171
 O         4.378756        -0.295407        -0.096906
 C         3.633782         0.989573        -0.295729
 C         2.406518         0.726978        -1.107201
 C         3.062898         0.801842         1.201172
 O         1.644849         0.755516         1.064497
 H        -0.543258        -0.839446         0.063437
 H        -0.328309         0.713215        -0.897496
 H        -0.022334        -0.829397        -1.614363
 H         1.631230        -1.649573         1.184444
 H         2.423906        -2.117161        -0.350924
 H         4.011324        -1.275716         1.722328
 H         4.281085         1.745598        -0.714554
 H         1.808747         1.609633        -1.143541
 H         2.638923         0.316303        -2.100290
 H         3.501863         1.581647         1.853018
