19
Iteration:   273charge 0 multiplicity 1
 C         0.112577        -0.418162        -0.634377
 C         1.522093        -0.055928        -0.133163
 C         2.289005        -1.363105         0.376118
 C         3.557387        -0.710211         0.958380
 O         4.316837        -0.301776        -0.250783
 C         3.670051         1.012419        -0.222342
 C         2.373425         0.817218        -1.066282
 C         3.042801         0.824430         1.246344
 O         1.591948         0.848040         1.059474
 H        -0.299996        -0.881898         0.291520
 H        -0.467724         0.459650        -0.884514
 H         0.144162        -1.106354        -1.475344
 H         1.741204        -1.747232         1.231810
 H         2.617157        -2.176164        -0.219809
 H         4.146099        -1.209369         1.632476
 H         4.332493         1.876311        -0.518348
 H         1.755891         1.683524        -1.235343
 H         2.561538         0.445522        -2.016968
 H         3.432500         1.411641         2.118705
