19
Iteration:  2044charge 0 multiplicity 1
 C         0.014321        -0.324692        -0.493281
 C         1.466763        -0.143465        -0.150972
 C         2.247823        -1.359139         0.288362
 C         3.532730        -0.642980         0.933569
 O         4.505863        -0.151575        -0.074213
 C         3.625811         0.987219        -0.257628
 C         2.364455         0.645124        -1.157236
 C         3.038197         0.804899         1.153670
 O         1.647879         0.798843         1.072859
 H        -0.620653        -0.770402         0.240369
 H        -0.287413         0.683267        -0.601037
 H         0.007377        -0.899340        -1.400249
 H         1.663717        -1.835148         1.023881
 H         2.483562        -2.086147        -0.577726
 H         4.072176        -1.156253         1.724271
 H         3.961328         1.948183        -0.552316
 H         1.920801         1.561446        -1.571856
 H         2.784100         0.040329        -1.948002
 H         3.393626         1.331035         2.052460
