19
Iteration:   799charge 0 multiplicity 1
 C         0.010002        -0.336420        -0.536708
 C         1.540675        -0.063554        -0.123153
 C         2.320326        -1.311430         0.391881
 C         3.590225        -0.640275         0.981127
 O         4.388211        -0.216258        -0.186022
 C         3.646524         1.028543        -0.275816
 C         2.391632         0.666922        -1.136695
 C         3.030073         0.841576         1.153440
 O         1.556182         0.674178         1.064757
 H        -0.506382        -0.897063         0.218124
 H        -0.517401         0.598588        -0.689349
 H        -0.026015        -0.761831        -1.526432
 H         1.724454        -1.602094         1.231368
 H         2.573818        -2.125517        -0.398215
 H         4.172000        -1.163152         1.647406
 H         4.451359         1.841588        -0.424031
 H         1.779879         1.521053        -1.318075
 H         2.816411         0.378526        -2.066813
 H         3.381387         1.430039         1.979650
