19
Iteration:  3253
 C         0.022673        -0.170942        -0.442872
 C         1.483763        -0.137842        -0.172001
 C         2.374643        -1.363490         0.296484
 C         3.501424        -0.687672         1.026103
 O         4.467004        -0.192238         0.065522
 C         3.637505         0.973599        -0.256271
 C         2.386538         0.684410        -1.238026
 C         3.002993         0.786784         1.097453
 O         1.614256         0.691938         0.959897
 H        -0.504451        -0.521243         0.393959
 H        -0.262766         0.887313        -0.485512
 H        -0.328081        -0.513676        -1.452585
 H         1.637214        -1.984068         0.900466
 H         2.587839        -1.948787        -0.589803
 H         4.066346        -1.208606         1.802601
 H         4.266460         1.796706        -0.696291
 H         1.876743         1.543121        -1.488584
 H         2.599551         0.117959        -2.218256
 H         3.167075         1.585984         1.865705
