19
Iteration:  4257
 C        -0.075151        -0.109694        -0.519362
 C         1.479623        -0.085467        -0.216350
 C         2.304604        -1.381811         0.231555
 C         3.521865        -0.730206         0.903699
 O         4.485629        -0.237763        -0.039646
 C         3.627304         1.066694        -0.161887
 C         2.458214         0.634210        -1.181595
 C         3.004180         0.767364         1.193840
 O         1.622474         0.734307         1.069382
 H        -0.564119        -0.093067         0.491894
 H        -0.498731         0.745053        -0.909623
 H        -0.405548        -1.037367        -0.959476
 H         1.895450        -2.036710         0.960581
 H         2.856436        -1.895333        -0.539149
 H         3.988183        -1.374279         1.625557
 H         4.240549         1.917416        -0.397313
 H         2.088104         1.566709        -1.730775
 H         2.806264        -0.163680        -1.953954
 H         3.332576         1.267524         2.101950
