19
Iteration:   744charge 0 multiplicity 1
 C        -0.121252        -0.304471        -0.347498
 C         1.473904        -0.064706        -0.193309
 C         2.316783        -1.350255         0.243719
 C         3.570284        -0.659789         0.928187
 O         4.553163        -0.124775        -0.043767
 C         3.628703         1.005000        -0.272932
 C         2.467449         0.622940        -1.214567
 C         2.943411         0.772959         1.182950
 O         1.608677         0.744180         1.010653
 H        -0.595619        -0.680065         0.512351
 H        -0.541005         0.667294        -0.561119
 H        -0.371910        -0.970755        -1.153020
 H         1.792522        -1.962944         0.932358
 H         2.608284        -2.118268        -0.582105
 H         3.962925        -1.177486         1.720322
 H         4.338225         1.884751        -0.469361
 H         1.992721         1.524056        -1.564316
 H         2.884522        -0.025990        -1.941427
 H         3.308339         1.466704         1.880298
