19
Iteration:  1800
 C         0.031612        -0.302283        -0.390654
 C         1.495808        -0.082510        -0.116995
 C         2.295706        -1.349672         0.246320
 C         3.510858        -0.745281         0.928644
 O         4.524440        -0.078976         0.009441
 C         3.640935         0.982792        -0.320567
 C         2.393447         0.623288        -1.236690
 C         2.976013         0.775833         1.140719
 O         1.558817         0.769326         1.044980
 H        -0.529231        -0.695128         0.487458
 H        -0.244678         0.707961        -0.687311
 H        -0.062409        -0.904227        -1.297967
 H         1.772365        -1.861828         1.124922
 H         2.552770        -2.049833        -0.692819
 H         4.051193        -1.240273         1.758130
 H         4.172038         2.010757        -0.504801
 H         2.032638         1.617437        -1.732214
 H         2.667775        -0.152905        -2.015089
 H         3.438218         1.473286         1.847119
