19
Iteration:  2573
 C         0.136201        -0.434501        -0.676855
 C         1.509376        -0.039199        -0.094524
 C         2.215302        -1.278917         0.448001
 C         3.548628        -0.666218         0.948910
 O         4.319888        -0.322941        -0.244223
 C         3.584481         0.955466        -0.243845
 C         2.409742         0.735651        -1.092771
 C         3.055010         0.841141         1.204229
 O         1.681013         0.884367         1.144713
 H        -0.498891        -0.939261         0.033315
 H        -0.491823         0.422753        -1.161089
 H         0.391951        -1.054224        -1.611517
 H         1.618419        -1.734435         1.242094
 H         2.198071        -1.998248        -0.404843
 H         4.202607        -1.297190         1.603736
 H         4.227197         1.864235        -0.553038
 H         2.017007         1.706884        -1.482670
 H         2.680645         0.164960        -1.933599
 H         3.450004         1.298898         2.110376
