19
Iteration:  3031charge 0 multiplicity 1
 C         0.171551        -0.446499        -0.728226
 C         1.457994         0.004089        -0.099419
 C         2.139348        -1.241145         0.507275
 C         3.452809        -0.727068         0.922602
 O         4.401361        -0.245271        -0.236360
 C         3.655388         0.955840        -0.235985
 C         2.404380         0.733874        -1.100967
 C         3.102532         0.784310         1.196902
 O         1.660127         0.854276         1.129236
 H        -0.744433        -0.711155        -0.132997
 H        -0.215520         0.330468        -1.419284
 H         0.264225        -1.318238        -1.307444
 H         1.558590        -1.467297         1.402077
 H         2.234889        -2.096061        -0.231982
 H         3.932284        -1.362868         1.735421
 H         4.292801         1.910054        -0.400665
 H         1.955119         1.665861        -1.471456
 H         2.694768         0.193552        -1.898329
 H         3.751352         1.130860         2.057228
