19
Iteration:  2627
 C         0.060585        -0.242956        -0.510715
 C         1.520826        -0.129473        -0.202100
 C         2.341586        -1.393672         0.372073
 C         3.547264        -0.656390         1.033110
 O         4.339799        -0.290931        -0.124548
 C         3.640735         0.979577        -0.247564
 C         2.398644         0.738926        -1.179470
 C         3.029339         0.825769         1.141123
 O         1.598410         0.795732         1.051184
 H        -0.468486        -0.835280         0.201978
 H        -0.362647         0.810761        -0.408261
 H         0.005768        -0.699301        -1.530855
 H         1.717218        -1.934454         1.086246
 H         2.644793        -2.112274        -0.403174
 H         4.129431        -1.363807         1.685621
 H         4.343877         1.856541        -0.440756
 H         1.891085         1.708123        -1.499922
 H         2.641470         0.235885        -2.111485
 H         3.291699         1.567419         1.881315
