19
Iteration:   587charge 0 multiplicity 1
 C        -0.013314        -0.303581        -0.544197
 C         1.429550        -0.117052        -0.103315
 C         2.320707        -1.326881         0.312781
 C         3.542797        -0.654285         0.951900
 O         4.531296        -0.201282        -0.081651
 C         3.621793         0.960871        -0.284531
 C         2.329059         0.645851        -1.124333
 C         2.996243         0.854932         1.149507
 O         1.655853         0.809373         1.029411
 H        -0.457068        -0.805361         0.354161
 H        -0.587368         0.588706        -0.771321
 H        -0.034175        -1.110127        -1.298151
 H         1.921390        -2.075725         1.122030
 H         2.680629        -1.873802        -0.513317
 H         3.964564        -1.394473         1.666459
 H         4.260112         1.876459        -0.418144
 H         1.859590         1.564383        -1.396591
 H         2.613183         0.131248        -2.046676
 H         3.381374         1.430652         2.006626
