19
Iteration:  2666
 C        -0.063807        -0.117815        -0.419559
 C         1.482179        -0.110535        -0.190177
 C         2.269709        -1.344360         0.212668
 C         3.639803        -0.771962         0.896014
 O         4.581021        -0.062974         0.109859
 C         3.601290         0.918056        -0.263462
 C         2.374339         0.545570        -1.250858
 C         2.980173         0.756939         1.117324
 O         1.592836         0.789356         1.040859
 H        -0.543496        -0.330300         0.593254
 H        -0.437032         0.823106        -0.729912
 H        -0.576024        -0.723368        -1.174986
 H         1.662829        -1.900276         1.017760
 H         2.501436        -2.091219        -0.531632
 H         4.239576        -1.351971         1.593572
 H         4.008626         1.888679        -0.321013
 H         1.954949         1.297033        -1.855486
 H         2.724348        -0.319569        -1.955424
 H         3.600576         1.354281         1.896180
