19
Iteration:  3071charge 0 multiplicity 1
 C         0.057954        -0.185327        -0.444328
 C         1.559153        -0.127720        -0.178890
 C         2.303312        -1.347944         0.299492
 C         3.410262        -0.609310         1.028636
 O         4.440419        -0.241210        -0.042350
 C         3.669133         0.938359        -0.281436
 C         2.466328         0.668345        -1.166532
 C         3.008359         0.800524         1.087813
 O         1.556543         0.731418         0.990017
 H        -0.331469        -0.556287         0.485975
 H        -0.154108         0.952844        -0.482913
 H        -0.188248        -0.828192        -1.313266
 H         1.669754        -2.059430         0.838813
 H         2.777657        -2.010094        -0.462758
 H         3.928100        -1.185547         1.867205
 H         4.170068         1.811819        -0.583643
 H         1.987397         1.702787        -1.336676
 H         2.646970         0.033369        -2.143966
 H         3.163799         1.423514         1.993369
