19
Iteration:  3887
 C         0.160598        -0.369139        -0.781649
 C         1.454731         0.046666        -0.106191
 C         2.249361        -1.325388         0.465623
 C         3.503913        -0.722630         0.964278
 O         4.289337        -0.304152        -0.150614
 C         3.621356         0.921155        -0.245851
 C         2.321156         0.824159        -1.114824
 C         3.078937         0.787056         1.193761
 O         1.733312         0.813166         1.147498
 H        -0.760579        -0.705632        -0.270350
 H         0.111349         0.403009        -1.487340
 H         0.445227        -1.223164        -1.343143
 H         1.617725        -1.651830         1.344406
 H         2.434820        -2.013701        -0.391060
 H         3.957055        -1.176129         1.868261
 H         4.255193         1.706831        -0.616124
 H         1.899326         1.788312        -1.386124
 H         2.772140         0.198486        -1.997327
 H         3.536207         1.362735         1.997522
