19
Iteration:  4510
 C        -0.052355        -0.224854        -0.464501
 C         1.402917        -0.037124        -0.183758
 C         2.260154        -1.309601         0.165974
 C         3.526905        -0.755440         0.902846
 O         4.526288        -0.175714         0.115746
 C         3.659044         0.976371        -0.266973
 C         2.439002         0.690904        -1.176283
 C         3.054821         0.670190         1.163159
 O         1.645543         0.783883         1.013636
 H        -0.562843         0.170643         0.366814
 H        -0.475922         0.506346        -1.183241
 H        -0.335136        -1.293756        -0.640176
 H         1.581628        -1.869251         0.836455
 H         2.529698        -1.956142        -0.676909
 H         3.816833        -1.439859         1.775441
 H         4.237476         1.855449        -0.550290
 H         2.069845         1.632698        -1.523648
 H         2.811975         0.157208        -2.085993
 H         3.413347         1.156146         2.093571
