19
Iteration:  1764charge 0 multiplicity 1
 C        -0.076299        -0.235140        -0.338375
 C         1.489496        -0.155566        -0.166641
 C         2.416219        -1.350254         0.227988
 C         3.551712        -0.648105         0.964212
 O         4.522817        -0.110461        -0.023361
 C         3.661441         0.992703        -0.249045
 C         2.428082         0.593454        -1.185804
 C         2.967633         0.790425         1.177405
 O         1.553853         0.720703         0.936646
 H        -0.737196        -0.455792         0.517578
 H        -0.272463         0.809432        -0.646683
 H        -0.452992        -0.749848        -1.231306
 H         1.739405        -2.034298         0.944681
 H         2.557196        -1.938954        -0.596597
 H         4.001144        -1.342312         1.635177
 H         4.225211         2.014336        -0.544990
 H         1.896479         1.414985        -1.611970
 H         2.707598        -0.099537        -1.983110
 H         3.171876         1.541777         1.912413
