19
Iteration:  4135charge 0 multiplicity 1
 C        -0.049416        -0.227959        -0.619592
 C         1.455534        -0.054864        -0.131517
 C         2.286511        -1.360526         0.269700
 C         3.506239        -0.682080         0.993382
 O         4.490376        -0.254056        -0.060164
 C         3.706167         0.974346        -0.248074
 C         2.381914         0.700009        -1.067493
 C         3.061629         0.823506         1.136455
 O         1.648809         0.718504         1.082496
 H        -0.848031        -0.629205         0.070677
 H        -0.458059         0.753325        -0.961265
 H         0.036476        -0.822070        -1.510408
 H         1.591849        -1.851806         0.946162
 H         2.525028        -2.051509        -0.562729
 H         4.098585        -1.207823         1.771981
 H         4.284127         1.919724        -0.490479
 H         1.881473         1.702224        -1.500629
 H         2.563914         0.110432        -2.029812
 H         3.237511         1.347280         2.085183
