19
Iteration:  1786charge 0 multiplicity 1
 C        -0.090345        -0.206377        -0.380738
 C         1.432891        -0.071010        -0.201136
 C         2.331744        -1.383293         0.194582
 C         3.547399        -0.615491         0.927243
 O         4.640309        -0.087490         0.052596
 C         3.568487         0.990687        -0.288194
 C         2.472787         0.539704        -1.229104
 C         2.971178         0.758757         1.102094
 O         1.589652         0.744657         1.077548
 H        -0.377242        -0.657296         0.610034
 H        -0.776939         0.624655        -0.561474
 H        -0.426907        -0.940731        -1.118827
 H         1.666104        -2.136693         0.879990
 H         2.614738        -1.971472        -0.631315
 H         3.903312        -1.194932         1.747264
 H         4.104366         2.014698        -0.659726
 H         1.994190         1.349515        -1.711086
 H         2.815270        -0.203735        -1.963034
 H         3.318721         1.227560         1.995414
