19
Iteration:  1215
 C        -0.021190        -0.257092        -0.416905
 C         1.480688        -0.112163        -0.159153
 C         2.401873        -1.363845         0.301505
 C         3.572425        -0.668150         0.938883
 O         4.477748        -0.150340        -0.031508
 C         3.628302         0.982481        -0.303680
 C         2.384071         0.634550        -1.207015
 C         2.952816         0.795574         1.209779
 O         1.567417         0.746693         1.012321
 H        -0.541838        -0.944756         0.301948
 H        -0.313917         0.794698        -0.488084
 H        -0.111398        -0.788018        -1.405059
 H         1.888209        -2.020021         1.030931
 H         2.679126        -1.877506        -0.701375
 H         4.193541        -1.121248         1.660870
 H         4.273116         1.891921        -0.619858
 H         1.915221         1.599151        -1.515566
 H         2.527933         0.099690        -2.193314
 H         3.294642         1.462284         2.043157
