19
Iteration:  2248charge 0 multiplicity 1
 C        -0.056905        -0.280132        -0.472889
 C         1.414078        -0.081918        -0.127860
 C         2.266709        -1.356688         0.315521
 C         3.611599        -0.620406         0.981469
 O         4.555429        -0.186209        -0.068117
 C         3.629194         0.995802        -0.247352
 C         2.434700         0.626402        -1.167399
 C         2.994145         0.743869         1.123697
 O         1.626627         0.816241         0.981500
 H        -0.479542        -0.690771         0.447078
 H        -0.758249         0.577120        -0.663215
 H        -0.242443        -1.020032        -1.300466
 H         1.795866        -2.062226         1.043744
 H         2.534826        -2.012171        -0.589473
 H         3.966439        -1.235975         1.772602
 H         4.086628         2.025675        -0.418814
 H         1.910249         1.550966        -1.661866
 H         2.752897        -0.008364        -1.960511
 H         3.321799         1.251811         2.017134
