19
Iteration:  2138charge 0 multiplicity 1
 C         0.098211        -0.535398        -0.767189
 C         1.521237        -0.025723        -0.103872
 C         2.208017        -1.269538         0.476625
 C         3.570014        -0.661894         0.900109
 O         4.307359        -0.277604        -0.218976
 C         3.597545         0.975182        -0.261672
 C         2.355283         0.774276        -1.064286
 C         3.125320         0.833276         1.185118
 O         1.658884         0.899486         1.191216
 H        -0.354521        -1.137586         0.012159
 H        -0.593072         0.261191        -1.169680
 H         0.614270        -1.273750        -1.438658
 H         1.544423        -1.644520         1.294318
 H         2.394158        -2.033634        -0.312065
 H         4.175395        -1.297436         1.557666
 H         4.363336         1.743754        -0.629984
 H         1.838041         1.775810        -1.192005
 H         2.601367         0.261316        -1.977978
 H         3.560714         1.096544         2.089062
