19
Iteration:  4481charge 0 multiplicity 1
 C         0.089533        -0.226159        -0.618893
 C         1.427434        -0.001711        -0.069136
 C         2.290651        -1.353523         0.306284
 C         3.563029        -0.715219         0.938021
 O         4.427402        -0.277562        -0.134537
 C         3.691577         0.936647        -0.230745
 C         2.447158         0.730458        -1.076281
 C         3.014050         0.751218         1.168398
 O         1.548159         0.798528         1.090183
 H        -0.786741        -0.011705         0.065834
 H        -0.163245         0.351631        -1.574872
 H        -0.078045        -1.240454        -1.042853
 H         1.616731        -1.929047         0.960458
 H         2.474607        -2.059122        -0.532647
 H         3.991106        -1.277529         1.820356
 H         4.382440         1.770952        -0.481388
 H         1.995834         1.821387        -1.368831
 H         2.716903         0.280340        -2.043684
 H         3.276986         1.271403         2.064489
