19
Iteration:  2638charge 0 multiplicity 1
 C         0.010653        -0.171714        -0.445094
 C         1.528448        -0.132276        -0.115262
 C         2.312880        -1.389366         0.323059
 C         3.516855        -0.629854         0.976139
 O         4.398715        -0.243874        -0.088422
 C         3.696392         1.000448        -0.321393
 C         2.479473         0.661619        -1.152684
 C         2.955269         0.816426         1.154380
 O         1.575131         0.711744         0.992171
 H        -0.465714        -0.704947         0.348644
 H        -0.335216         0.921392        -0.483960
 H        -0.388858        -0.582803        -1.406392
 H         1.700402        -2.085933         0.876038
 H         2.788642        -1.829846        -0.560285
 H         4.119464        -0.954866         1.889325
 H         4.326577         1.919236        -0.581483
 H         1.846686         1.525899        -1.553325
 H         2.805840        -0.023992        -1.911269
 H         3.335576         1.236479         2.055541
