19
Iteration:  1167
 C         0.063591        -0.263542        -0.456783
 C         1.474933        -0.132244        -0.187759
 C         2.362055        -1.346572         0.286857
 C         3.556262        -0.678847         0.916102
 O         4.474769        -0.120777        -0.079389
 C         3.563747         0.979322        -0.303271
 C         2.431298         0.660169        -1.182447
 C         2.973064         0.800012         1.193947
 O         1.552307         0.747617         1.066616
 H        -0.269026        -0.651981         0.475362
 H        -0.407780         0.668664        -0.727512
 H        -0.106250        -1.112756        -1.070786
 H         1.736459        -1.619223         1.132124
 H         2.551381        -2.222319        -0.391497
 H         4.154358        -1.324098         1.687491
 H         4.146940         1.828645        -0.383561
 H         1.978623         1.582728        -1.612804
 H         2.731960         0.049099        -2.045440
 H         3.265725         1.330792         2.101559
