19
Iteration:  3045
 C        -0.000212        -0.346187        -0.712307
 C         1.487808         0.008569        -0.130689
 C         2.227105        -1.325554         0.470661
 C         3.607454        -0.730352         0.956694
 O         4.423357        -0.278349        -0.135016
 C         3.637961         0.971548        -0.239482
 C         2.402258         0.767828        -1.096078
 C         3.075510         0.702519         1.194633
 O         1.619072         0.890090         1.021928
 H        -0.525130        -0.638400         0.225532
 H        -0.475972         0.385777        -1.280348
 H         0.295393        -1.269324        -1.246291
 H         1.623351        -1.702848         1.336647
 H         2.287619        -2.209167        -0.133715
 H         4.224980        -1.266928         1.656554
 H         4.258645         1.855200        -0.565169
 H         1.897378         1.706245        -1.310376
 H         2.593734         0.169292        -2.034753
 H         3.204533         1.381005         2.002564
