19
Iteration:   463
 C        -0.102252        -0.131653        -0.334939
 C         1.518973        -0.147893        -0.206669
 C         2.313496        -1.419169         0.263359
 C         3.626368        -0.653608         0.957931
 O         4.524317        -0.099527        -0.062434
 C         3.591664         0.970828        -0.223330
 C         2.478613         0.658185        -1.180239
 C         2.959061         0.709730         1.176375
 O         1.524385         0.714240         0.902763
 H        -0.395909        -0.589151         0.636944
 H        -0.357609         0.988352        -0.354264
 H        -0.629541        -0.706493        -1.148870
 H         1.919956        -2.129887         1.074256
 H         2.731639        -2.037681        -0.635468
 H         4.280872        -1.056721         1.812340
 H         4.126153         1.831575        -0.472071
 H         2.118442         1.456807        -1.742476
 H         2.863980        -0.074009        -1.874401
 H         3.246155         1.419095         1.986181
