19
Iteration:  1073
 C         0.055067        -0.276684        -0.419705
 C         1.520084        -0.165667        -0.199808
 C         2.302427        -1.373413         0.311114
 C         3.571099        -0.623677         0.938660
 O         4.516765        -0.167730        -0.107228
 C         3.612185         1.031395        -0.219044
 C         2.423598         0.636245        -1.147057
 C         2.974119         0.778332         1.155486
 O         1.531763         0.789325         1.008793
 H        -0.436256        -0.878775         0.430463
 H        -0.228618         0.780905        -0.439054
 H        -0.360571        -0.750713        -1.333661
 H         1.828757        -2.028812         1.003465
 H         2.448777        -2.002698        -0.591075
 H         3.971653        -1.273750         1.610999
 H         4.065192         2.032062        -0.488543
 H         1.784289         1.450691        -1.433715
 H         2.715850         0.000075        -2.009638
 H         3.252063         1.424042         1.952271
