19
Iteration:  1975
 C         0.186077        -0.399601        -0.612751
 C         1.494729        -0.013656        -0.103089
 C         2.232992        -1.331185         0.412930
 C         3.551886        -0.698720         0.936353
 O         4.393305        -0.178670        -0.155515
 C         3.591250         0.983254        -0.307470
 C         2.323421         0.764431        -1.148798
 C         3.049782         0.762777         1.200301
 O         1.636207         0.786841         1.118134
 H        -0.484031        -0.995948         0.006244
 H        -0.475857         0.446083        -0.856679
 H         0.454742        -1.117433        -1.412233
 H         1.683334        -1.643184         1.304748
 H         2.295678        -2.178884        -0.314428
 H         4.081981        -1.282602         1.716264
 H         4.373712         1.778917        -0.748594
 H         1.852916         1.706333        -1.489938
 H         2.510838         0.131488        -1.994414
 H         3.388588         1.397213         2.023911
