19
Iteration:  3278charge 0 multiplicity 1
 C         0.060669        -0.333542        -0.635270
 C         1.424494        -0.057739        -0.154218
 C         2.260168        -1.289311         0.395518
 C         3.481555        -0.659493         0.967983
 O         4.528805        -0.259027        -0.189494
 C         3.705898         0.926357        -0.213687
 C         2.420933         0.694069        -1.090228
 C         3.014497         0.798617         1.181420
 O         1.568481         0.831099         1.087952
 H        -0.321351        -1.105293         0.050846
 H        -0.704580         0.505218        -0.599577
 H         0.113987        -0.582167        -1.671105
 H         1.588098        -1.701646         1.189596
 H         2.417470        -2.174210        -0.292878
 H         4.108575        -1.212987         1.694565
 H         4.251714         1.753415        -0.617043
 H         1.946255         1.611873        -1.412278
 H         2.698780         0.146196        -2.007152
 H         3.245009         1.435689         2.036069
