19
Iteration:  4153charge 0 multiplicity 1
 C         0.063499        -0.370647        -0.741762
 C         1.479525        -0.029834        -0.090241
 C         2.179441        -1.276281         0.412930
 C         3.530973        -0.706734         0.935094
 O         4.446956        -0.296933        -0.118851
 C         3.630402         0.937546        -0.270692
 C         2.356298         0.813913        -1.103884
 C         3.080199         0.718057         1.201268
 O         1.642847         0.856607         1.130227
 H        -0.394349        -1.137981        -0.196774
 H        -0.632698         0.491289        -0.830016
 H         0.291565        -0.714711        -1.760622
 H         1.748713        -1.894366         1.228706
 H         2.484485        -1.956510        -0.397939
 H         4.007334        -1.390421         1.673776
 H         4.389848         1.726538        -0.478441
 H         2.020423         1.825045        -1.226134
 H         2.511654         0.520031        -2.088028
 H         3.606283         1.319803         1.950656
