19
Iteration:  3550charge 0 multiplicity 1
 C         0.032548        -0.224785        -0.539477
 C         1.476657        -0.106125        -0.146613
 C         2.222195        -1.372930         0.299430
 C         3.528060        -0.674102         0.894898
 O         4.519370        -0.179944        -0.035142
 C         3.669064         0.984479        -0.237393
 C         2.430813         0.629536        -1.111816
 C         2.979030         0.771498         1.244857
 O         1.618414         0.802121         0.963037
 H        -0.556909        -0.243183         0.439882
 H        -0.452673         0.615148        -1.090502
 H        -0.254322        -1.125310        -1.050645
 H         1.753759        -1.986308         1.070249
 H         2.381685        -1.912851        -0.656953
 H         3.952993        -1.279637         1.764662
 H         4.178264         1.845562        -0.701558
 H         1.965414         1.612216        -1.358960
 H         2.702048        -0.113239        -2.054022
 H         3.386542         1.318968         2.109209
