19
Iteration:  2204charge 0 multiplicity 1
 C         0.017788        -0.185688        -0.396060
 C         1.496065        -0.153287        -0.186788
 C         2.282969        -1.400392         0.335488
 C         3.520651        -0.675177         0.945057
 O         4.519383        -0.143814        -0.006683
 C         3.604963         1.035990        -0.259738
 C         2.430444         0.612803        -1.223395
 C         3.017569         0.795906         1.107373
 O         1.581532         0.697394         0.987333
 H        -0.543361        -0.515523         0.469168
 H        -0.439177         0.854866        -0.415791
 H        -0.331044        -0.772429        -1.312460
 H         1.661653        -2.135793         0.921846
 H         2.810529        -1.849537        -0.589972
 H         4.018554        -0.914269         1.863014
 H         4.160230         1.995043        -0.574737
 H         1.766278         1.494081        -1.628946
 H         2.781217        -0.037781        -1.998145
 H         3.374857         1.432493         1.876476
