19
Iteration:  4751charge 0 multiplicity 1
 C         0.112445        -0.326777        -0.673850
 C         1.435411        -0.024625        -0.102136
 C         2.184143        -1.293857         0.331516
 C         3.432290        -0.664830         0.939174
 O         4.400024        -0.348292        -0.063294
 C         3.695090         0.983209        -0.296964
 C         2.446787         0.702447        -1.091554
 C         3.132644         0.827314         1.182986
 O         1.607998         0.840043         1.102391
 H         0.030876        -0.087056        -1.736385
 H        -0.220536        -1.392195        -0.448168
 H        -0.736615         0.243743        -0.269772
 H         1.599721        -1.894426         1.090077
 H         2.517821        -1.859054        -0.552742
 H         3.747762        -1.301048         1.876628
 H         4.367503         1.801975        -0.582783
 H         2.096810         1.701626        -1.399895
 H         2.832592         0.106121        -1.922706
 H         3.683728         1.154658         2.018901
