19
Iteration:  3504charge 0 multiplicity 1
 C        -0.038277        -0.204216        -0.476456
 C         1.452899        -0.100217        -0.204164
 C         2.298048        -1.323777         0.287492
 C         3.520722        -0.648636         1.015312
 O         4.463512        -0.200533        -0.021816
 C         3.694473         0.953128        -0.288455
 C         2.438320         0.631236        -1.110163
 C         2.991827         0.803113         1.143896
 O         1.615720         0.729955         0.956116
 H        -0.505473        -0.731004         0.370937
 H        -0.421532         0.887243        -0.482315
 H        -0.270707        -0.700102        -1.451846
 H         1.627391        -1.916027         0.902902
 H         2.824305        -1.955531        -0.423440
 H         4.021823        -1.164404         1.844244
 H         4.355875         1.801919        -0.594571
 H         1.966490         1.551071        -1.438603
 H         2.871329        -0.047759        -2.016072
 H         3.282597         1.250236         2.092508
