19
Iteration:   941
 C         0.065697        -0.362888        -0.567072
 C         1.506563        -0.126251        -0.092859
 C         2.316256        -1.305978         0.321042
 C         3.541113        -0.603008         0.931465
 O         4.444663        -0.197731        -0.102664
 C         3.599293         0.952793        -0.261573
 C         2.353186         0.689091        -1.131873
 C         3.030171         0.754656         1.126029
 O         1.629307         0.813630         1.101107
 H        -0.486280        -0.951528         0.245254
 H        -0.464766         0.642630        -0.684850
 H        -0.041599        -0.745933        -1.619794
 H         1.707714        -1.845625         1.053639
 H         2.707910        -2.032421        -0.519223
 H         4.040662        -1.199089         1.634729
 H         4.117614         2.013227        -0.474413
 H         1.719080         1.555047        -1.272994
 H         2.471834         0.106760        -2.060833
 H         3.416830         1.397095         1.988121
