19
Iteration:  2577
 C         0.116453        -0.460065        -0.719450
 C         1.491358        -0.029769        -0.059301
 C         2.213047        -1.293549         0.466650
 C         3.506754        -0.696063         0.907870
 O         4.340321        -0.332759        -0.261648
 C         3.613914         0.943549        -0.249358
 C         2.451467         0.764823        -1.076403
 C         3.059684         0.903563         1.205616
 O         1.664748         0.887437         1.169682
 H        -0.522278        -1.045564         0.031013
 H        -0.520345         0.340189        -1.078526
 H         0.546959        -1.032633        -1.512506
 H         1.600080        -1.711999         1.273556
 H         2.128643        -2.054433        -0.381168
 H         4.152609        -1.219213         1.533910
 H         4.124249         1.848571        -0.526985
 H         1.978807         1.659291        -1.469528
 H         2.751739         0.210645        -1.992866
 H         3.560828         1.319438         2.054877
