19
Iteration:  3801charge 0 multiplicity 1
 C        -0.062749        -0.147932        -0.425948
 C         1.452416        -0.039396        -0.107701
 C         2.335672        -1.329243         0.238394
 C         3.536058        -0.689981         0.926080
 O         4.589300        -0.252364         0.088850
 C         3.660991         0.960681        -0.257783
 C         2.475981         0.581186        -1.208003
 C         2.953315         0.742329         1.153106
 O         1.519158         0.811975         0.949027
 H        -0.587795        -0.940307         0.237796
 H        -0.484041         0.844921        -0.328309
 H        -0.163819        -0.417194        -1.510107
 H         1.956225        -2.141535         0.887415
 H         2.370955        -1.836186        -0.763543
 H         3.993145        -1.349403         1.729010
 H         4.275909         1.789079        -0.530988
 H         1.954336         1.433671        -1.607762
 H         2.758235        -0.005352        -2.212954
 H         3.290468         1.511832         1.846723
