19
Iteration:  4492
 C        -0.007784        -0.225118        -0.575711
 C         1.487300        -0.044597        -0.144116
 C         2.212971        -1.295218         0.219673
 C         3.487012        -0.742895         0.894358
 O         4.621069        -0.268177        -0.078369
 C         3.707211         0.891411        -0.191610
 C         2.395511         0.685974        -1.093020
 C         2.966190         0.807486         1.193408
 O         1.564756         0.805745         1.087640
 H        -0.758703         0.012693         0.260511
 H        -0.143561         0.429572        -1.503781
 H         0.025714        -1.320121        -0.697566
 H         1.706356        -1.886345         0.999991
 H         2.469572        -1.830456        -0.720191
 H         4.038632        -1.236279         1.743183
 H         4.206328         1.865290        -0.352463
 H         1.844632         1.766511        -1.328938
 H         2.559721         0.078116        -1.998472
 H         3.417438         1.367607         1.979761
