19
Iteration:  1731charge 0 multiplicity 1
 C         0.108475        -0.416794        -0.629356
 C         1.548776        -0.101450        -0.096536
 C         2.285392        -1.291962         0.407418
 C         3.537211        -0.646390         0.993809
 O         4.347983        -0.241683        -0.193859
 C         3.607583         1.007747        -0.273729
 C         2.366721         0.777042        -1.112121
 C         3.051391         0.838286         1.175922
 O         1.642288         0.738608         1.073282
 H        -0.523518        -0.915700         0.111108
 H        -0.409756         0.503247        -0.940010
 H         0.152083        -1.009013        -1.560884
 H         1.526320        -1.633930         1.258438
 H         2.537139        -2.060871        -0.247676
 H         4.110644        -1.249562         1.669178
 H         4.357022         1.879418        -0.564567
 H         1.741782         1.632305        -1.225158
 H         2.571023         0.215073        -2.021257
 H         3.343439         1.465021         2.028500
