19
Iteration:  2517
 C        -0.134400        -0.130873        -0.324675
 C         1.475877        -0.090971        -0.183045
 C         2.340177        -1.339470         0.220556
 C         3.481018        -0.657634         0.966639
 O         4.626656        -0.116900         0.050329
 C         3.677044         0.969410        -0.290171
 C         2.424046         0.519773        -1.235492
 C         3.019466         0.798632         1.109655
 O         1.555138         0.709679         0.965174
 H        -0.627411        -0.489352         0.561595
 H        -0.531935         0.880970        -0.646115
 H        -0.553755        -0.891622        -1.091415
 H         1.848608        -1.997525         0.984650
 H         2.567376        -1.857732        -0.668871
 H         3.946378        -1.421509         1.697438
 H         4.229898         1.914138        -0.561023
 H         2.045706         1.421699        -1.724566
 H         2.729210        -0.299522        -1.911796
 H         3.361166         1.208091         2.114079
