19
Iteration:  4081
 C        -0.080708        -0.163552        -0.503552
 C         1.447899        -0.107668        -0.208571
 C         2.259893        -1.334866         0.276784
 C         3.490846        -0.687311         0.889709
 O         4.549638        -0.184227        -0.005043
 C         3.677287         0.992917        -0.231239
 C         2.533369         0.639087        -1.107056
 C         3.003800         0.735004         1.141244
 O         1.578644         0.724546         1.023590
 H        -0.504909        -0.205853         0.578433
 H        -0.534332         0.742230        -1.020322
 H        -0.398374        -1.095500        -0.953030
 H         1.866461        -1.944706         1.079281
 H         2.406250        -1.946914        -0.621927
 H         4.029374        -1.250925         1.667778
 H         4.221868         1.938573        -0.446160
 H         2.024618         1.589520        -1.579427
 H         2.964513         0.215197        -2.042604
 H         3.203404         1.202172         2.116902
