19
Iteration:  2574
 C         0.132310        -0.442035        -0.685786
 C         1.506288        -0.038174        -0.086849
 C         2.214949        -1.281596         0.453835
 C         3.540138        -0.672147         0.941293
 O         4.324428        -0.326180        -0.248795
 C         3.587502         0.950195        -0.244511
 C         2.421482         0.740853        -1.090606
 C         3.055474         0.858246         1.206404
 O         1.678999         0.885351         1.150891
 H        -0.508772        -0.960245         0.039526
 H        -0.513582         0.417432        -1.154555
 H         0.433669        -1.049350        -1.600758
 H         1.618362        -1.728941         1.240682
 H         2.168713        -2.018355        -0.416114
 H         4.188281        -1.272706         1.572519
 H         4.206691         1.876023        -0.551538
 H         2.014644         1.699034        -1.487253
 H         2.687302         0.196526        -1.918852
 H         3.466934         1.287891         2.086028
