19
Iteration:  2976
 C        -0.006640        -0.176850        -0.495767
 C         1.514484        -0.134566        -0.226784
 C         2.273405        -1.369133         0.368411
 C         3.580073        -0.669896         0.961159
 O         4.499406        -0.310785         0.000847
 C         3.649242         0.980671        -0.287043
 C         2.429934         0.684666        -1.146767
 C         2.962536         0.855893         1.135561
 O         1.584233         0.768139         0.937122
 H        -0.405306        -0.747185         0.367946
 H        -0.403916         0.859103        -0.371323
 H        -0.309306        -0.661236        -1.397356
 H         1.650967        -1.886172         1.099824
 H         2.481153        -2.217536        -0.358881
 H         3.958945        -1.232738         1.866833
 H         4.271881         1.920300        -0.502482
 H         1.882010         1.628706        -1.210536
 H         2.630374         0.335371        -2.077937
 H         3.388888         1.404197         2.028771
