19
Iteration:   334
 C        -0.103676        -0.152312        -0.443671
 C         1.419733        -0.132483        -0.043022
 C         2.386201        -1.376386         0.154841
 C         3.570968        -0.697619         0.908360
 O         4.575975        -0.082933         0.029437
 C         3.604201         0.963547        -0.283495
 C         2.393690         0.545973        -1.191658
 C         3.059193         0.738399         1.145019
 O         1.543088         0.776223         1.046555
 H        -0.885665        -0.569560         0.201142
 H        -0.500682         0.885002        -0.595456
 H        -0.350531        -0.734189        -1.371082
 H         2.132954        -2.202713         0.911816
 H         2.731560        -1.864526        -0.805829
 H         4.160788        -1.301153         1.784699
 H         4.037715         1.966965        -0.527562
 H         1.967276         1.558466        -1.486609
 H         2.832576        -0.143479        -2.077628
 H         3.323976         1.419269         1.963994
