19
Iteration:  1840charge 0 multiplicity 1
 C         0.137761        -0.458805        -0.685706
 C         1.491425        -0.111117        -0.079983
 C         2.330482        -1.350524         0.547803
 C         3.569001        -0.621646         1.010828
 O         4.267867        -0.281570        -0.269368
 C         3.669782         0.965190        -0.251408
 C         2.394742         0.916614        -1.133984
 C         3.055478         0.847886         1.095858
 O         1.585520         0.768212         1.118513
 H        -0.652428        -0.959125        -0.079692
 H        -0.301430         0.520402        -0.895886
 H         0.276429        -1.090250        -1.565304
 H         1.607845        -1.761414         1.333308
 H         2.533979        -2.117096        -0.075263
 H         4.172107        -1.206348         1.686419
 H         4.493297         1.730927        -0.449493
 H         1.855431         1.782576        -1.292964
 H         2.591426         0.466980        -2.106756
 H         3.296855         1.370900         1.981112
