19
Iteration:  4634charge 0 multiplicity 1
 C         0.058379        -0.186452        -0.412110
 C         1.560073        -0.083813        -0.280494
 C         2.285774        -1.324249         0.253346
 C         3.441393        -0.694819         0.988956
 O         4.464398        -0.262943        -0.017169
 C         3.664544         0.912770        -0.201453
 C         2.452082         0.755718        -1.186315
 C         2.960297         0.756810         1.186687
 O         1.607837         0.765321         0.958594
 H        -0.244908        -1.244222        -0.402079
 H        -0.419369         0.430853         0.326952
 H        -0.248174         0.087657        -1.411361
 H         1.677184        -1.716122         1.056343
 H         2.548680        -2.045027        -0.500611
 H         3.810069        -1.461892         1.623471
 H         4.228701         1.793441        -0.508311
 H         1.909445         1.709487        -1.266090
 H         2.646460         0.286926        -2.121927
 H         3.186158         1.261946         2.118785
