19
Iteration:   819
 C         0.209771        -0.456518        -0.630232
 C         1.529001        -0.093076        -0.082433
 C         2.238869        -1.347781         0.529489
 C         3.548823        -0.676165         0.891799
 O         4.343409        -0.263279        -0.263356
 C         3.589932         1.013018        -0.278953
 C         2.354784         0.836249        -1.075192
 C         2.992115         0.782305         1.194738
 O         1.627232         0.847398         1.059754
 H        -0.340815        -1.007807         0.125158
 H        -0.347293         0.526554        -0.843589
 H         0.225637        -0.983753        -1.619708
 H         1.757541        -1.742315         1.416655
 H         2.499975        -2.211967        -0.182621
 H         4.173748        -1.221779         1.526051
 H         4.111402         2.061996        -0.455433
 H         1.944181         1.796510        -1.279936
 H         2.759093         0.348538        -1.930475
 H         3.437790         1.168225         2.070796
