19
Iteration:  4508
 C        -0.042103        -0.238448        -0.481464
 C         1.403728        -0.030989        -0.179721
 C         2.253057        -1.298752         0.173511
 C         3.515885        -0.747300         0.903501
 O         4.556537        -0.187616         0.103762
 C         3.650267         0.979653        -0.258559
 C         2.429725         0.688628        -1.164181
 C         3.058207         0.675711         1.166190
 O         1.643959         0.788600         1.021292
 H        -0.531445         0.193107         0.363822
 H        -0.473286         0.421747        -1.186332
 H        -0.410914        -1.251438        -0.699714
 H         1.590172        -1.899822         0.820382
 H         2.507037        -1.947181        -0.659347
 H         3.758587        -1.475708         1.658702
 H         4.238902         1.844183        -0.582630
 H         2.096730         1.566904        -1.483007
 H         2.733843         0.157007        -2.076960
 H         3.381096         1.209563         2.101670
