19
Iteration:  1349
 C         0.004724        -0.247262        -0.334088
 C         1.461052        -0.092424        -0.149584
 C         2.262400        -1.368559         0.206197
 C         3.510330        -0.623886         0.909564
 O         4.554617        -0.061366         0.041629
 C         3.605760         1.006560        -0.261403
 C         2.439883         0.577305        -1.216418
 C         2.972462         0.761103         1.082378
 O         1.613357         0.703106         1.011263
 H        -0.521480        -0.693304         0.547841
 H        -0.570674         0.719496        -0.507411
 H        -0.176473        -0.851816        -1.286573
 H         1.663050        -2.050005         0.964698
 H         2.625824        -1.995269        -0.537574
 H         4.135122        -1.186555         1.506215
 H         4.261726         1.953509        -0.547901
 H         1.920876         1.418343        -1.728348
 H         2.793072        -0.227140        -1.838356
 H         3.420744         1.270849         1.907503
