19
Iteration:   664charge 0 multiplicity 1
 C         0.124286        -0.368789        -0.579493
 C         1.498352        -0.047141        -0.138745
 C         2.243941        -1.345262         0.454860
 C         3.594698        -0.666345         0.896446
 O         4.394505        -0.188654        -0.183833
 C         3.602126         0.970395        -0.266059
 C         2.338445         0.676628        -1.162826
 C         3.062763         0.846218         1.187263
 O         1.593529         0.770929         1.114072
 H        -0.517936        -0.902472         0.143176
 H        -0.402268         0.556205        -0.927326
 H         0.374814        -0.832120        -1.559185
 H         1.644199        -1.800020         1.340879
 H         2.453987        -2.143295        -0.250882
 H         3.960726        -1.286926         1.717746
 H         4.285863         1.850675        -0.621824
 H         2.036815         1.690790        -1.271364
 H         2.504054         0.179441        -2.072118
 H         3.589237         1.359771         2.083305
