19
Iteration:  4467charge 0 multiplicity 1
 C         0.086187        -0.238785        -0.720579
 C         1.592713        -0.089546        -0.175299
 C         2.266448        -1.345470         0.437534
 C         3.479046        -0.724445         0.976990
 O         4.266163        -0.320840        -0.161993
 C         3.620184         1.030848        -0.236589
 C         2.422664         0.826390        -1.106105
 C         3.053489         0.741641         1.255876
 O         1.664791         0.757503         1.075710
 H        -0.516117        -0.051415         0.130959
 H        -0.099840         0.641471        -1.391848
 H        -0.026160        -1.264947        -1.115641
 H         1.729869        -1.868711         1.249167
 H         2.648057        -1.988864        -0.361419
 H         4.187218        -1.304273         1.646854
 H         4.254389         1.877602        -0.487647
 H         1.827269         1.803169        -1.364678
 H         2.659474         0.197378        -2.029668
 H         3.502658         1.334175         2.087379
