19
Iteration:  1343charge 0 multiplicity 1
 C        -0.012545        -0.239955        -0.338321
 C         1.471181        -0.156009        -0.175643
 C         2.274398        -1.366501         0.214212
 C         3.534806        -0.644888         0.886469
 O         4.534425        -0.040435         0.050335
 C         3.609767         0.990878        -0.251657
 C         2.441152         0.579189        -1.220190
 C         2.953971         0.787511         1.074933
 O         1.578444         0.734962         1.018157
 H        -0.323218        -0.486041         0.690045
 H        -0.305012         0.808234        -0.331440
 H        -0.223219        -0.810028        -1.197470
 H         1.846388        -1.969064         0.931847
 H         2.744831        -2.037079        -0.641466
 H         4.191094        -1.412370         1.574154
 H         4.157575         1.761458        -0.636805
 H         2.119512         1.475096        -1.737636
 H         2.730334        -0.236337        -1.930658
 H         3.296115         1.172426         2.070072
