19
Iteration:   574charge 0 multiplicity 1
 C         0.024004        -0.382267        -0.582948
 C         1.524668        -0.081003        -0.140869
 C         2.326820        -1.333241         0.424105
 C         3.600419        -0.684419         0.975544
 O         4.380265        -0.210657        -0.209197
 C         3.638474         1.012690        -0.272504
 C         2.415650         0.711508        -1.082870
 C         3.056818         0.741394         1.186183
 O         1.566344         0.852114         1.065747
 H        -0.704537        -0.759282         0.231605
 H        -0.427271         0.547080        -1.011467
 H         0.004196        -1.024579        -1.499858
 H         1.609810        -1.816439         1.192851
 H         2.474372        -2.063053        -0.341122
 H         4.247021        -1.106154         1.861472
 H         4.122147         1.846759        -0.745027
 H         1.889421         1.579789        -1.285487
 H         2.600798         0.131492        -2.010906
 H         3.314445         1.362726         1.987351
