19
Iteration:   828charge 0 multiplicity 1
 C         0.208261        -0.491475        -0.652448
 C         1.547923        -0.040893        -0.056385
 C         2.261576        -1.359281         0.513034
 C         3.538109        -0.741246         0.926398
 O         4.299941        -0.227998        -0.228055
 C         3.547739         1.037506        -0.260342
 C         2.334199         0.806570        -1.105435
 C         3.095659         0.754149         1.158008
 O         1.629390         0.890129         1.076208
 H        -0.461155        -1.058743         0.013258
 H        -0.403523         0.438517        -0.998546
 H         0.482242        -1.064908        -1.603382
 H         1.656743        -1.655261         1.399392
 H         2.348337        -2.094480        -0.275088
 H         4.242112        -1.351255         1.573884
 H         4.328122         1.806384        -0.444485
 H         1.659234         1.715580        -1.235970
 H         2.671070         0.611602        -2.117034
 H         3.517658         1.253086         2.007753
