19
Iteration:  1182
 C        -0.039884        -0.255162        -0.358891
 C         1.505924        -0.090584        -0.127341
 C         2.274043        -1.368962         0.240855
 C         3.555212        -0.658305         0.878511
 O         4.565243        -0.057899         0.032658
 C         3.658396         1.035940        -0.258436
 C         2.423074         0.560806        -1.246586
 C         2.934751         0.757202         1.152357
 O         1.585222         0.703631         1.014387
 H        -0.662685        -0.575846         0.529122
 H        -0.415673         0.742248        -0.624768
 H        -0.276307        -0.902038        -1.229071
 H         1.935147        -2.074052         0.974490
 H         2.546561        -1.883705        -0.744850
 H         4.005004        -1.205773         1.644394
 H         4.032329         1.957881        -0.728295
 H         1.927490         1.425931        -1.730745
 H         2.765907        -0.155824        -2.036031
 H         3.317690         1.346075         1.996457
