19
Iteration:  1962
 C         0.028643        -0.336113        -0.534926
 C         1.505098        -0.101552        -0.096665
 C         2.290978        -1.289863         0.325094
 C         3.560479        -0.655724         0.890224
 O         4.516221        -0.212060        -0.098449
 C         3.576166         0.999338        -0.288901
 C         2.417104         0.645859        -1.183418
 C         3.016196         0.781456         1.153271
 O         1.552746         0.795401         1.140243
 H        -0.471127        -0.867528         0.348718
 H        -0.442386         0.602747        -0.906592
 H        -0.021276        -0.910412        -1.499672
 H         1.682259        -1.810918         1.162985
 H         2.434628        -1.987609        -0.415944
 H         4.104998        -1.215024         1.682707
 H         4.065508         2.088817        -0.464931
 H         1.846660         1.526166        -1.416838
 H         2.746382         0.145464        -2.136281
 H         3.532676         1.349196         1.968057
