19
Iteration:  3617
 C         0.062660        -0.315804        -0.736506
 C         1.471554        -0.065625        -0.097811
 C         2.266640        -1.378696         0.403306
 C         3.512712        -0.639115         1.023913
 O         4.368974        -0.317228        -0.116160
 C         3.603330         0.943682        -0.279155
 C         2.399515         0.789104        -1.055234
 C         3.086284         0.760511         1.136166
 O         1.670789         0.878372         1.070696
 H        -0.367434        -1.115864        -0.040603
 H        -0.630133         0.502990        -0.687224
 H         0.115673        -0.740058        -1.743535
 H         1.781109        -2.009454         1.144642
 H         2.577539        -2.074791        -0.407825
 H         4.122593        -1.124249         1.843954
 H         4.310823         1.729632        -0.391841
 H         1.869677         1.730754        -1.379670
 H         2.687835         0.330549        -2.125322
 H         3.378509         1.440105         1.945618
