19
Iteration:   135
 C         0.162290        -0.382998        -0.561690
 C         1.519049        -0.097821        -0.130404
 C         2.255814        -1.268385         0.421850
 C         3.511973        -0.704672         0.939690
 O         4.382055        -0.230034        -0.149992
 C         3.595211         0.971342        -0.229064
 C         2.357562         0.719974        -1.118238
 C         3.044552         0.817506         1.150721
 O         1.645846         0.815903         1.037280
 H        -0.429445        -0.883004         0.201192
 H        -0.266845         0.558466        -0.872110
 H         0.146626        -0.973962        -1.470966
 H         1.620908        -1.854282         1.027683
 H         2.433738        -1.881772        -0.502177
 H         4.095618        -1.287210         1.736996
 H         4.286436         1.724937        -0.498372
 H         1.636026         1.599040        -1.171250
 H         2.545247         0.300623        -2.119390
 H         3.444763         1.440365         1.962370
