19
Iteration:  3912charge 0 multiplicity 1
 C         0.118544        -0.336352        -0.588105
 C         1.501241        -0.030737        -0.169558
 C         2.199518        -1.316205         0.442790
 C         3.502206        -0.707663         0.925090
 O         4.436787        -0.328722        -0.213744
 C         3.686022         1.019211        -0.207076
 C         2.484233         0.754381        -1.088634
 C         2.977300         0.776641         1.202549
 O         1.556034         0.829655         1.043573
 H        -0.555512        -0.426720         0.242546
 H        -0.035828         0.482952        -1.225052
 H        -0.018616        -1.292117        -1.158890
 H         1.512337        -1.653562         1.226924
 H         2.443758        -1.964196        -0.393666
 H         3.948637        -1.455415         1.616061
 H         4.199530         1.936664        -0.461496
 H         1.968249         1.697199        -1.298632
 H         2.978825         0.265484        -1.993630
 H         3.359069         1.257932         2.125286
