19
Iteration:  1513charge 0 multiplicity 1
 C         0.053874        -0.295715        -0.454141
 C         1.459852        -0.126023        -0.119680
 C         2.314476        -1.366117         0.276316
 C         3.543728        -0.667016         0.940325
 O         4.445991        -0.105461        -0.046196
 C         3.611417         1.018815        -0.258905
 C         2.389237         0.653134        -1.126404
 C         2.971267         0.791464         1.129473
 O         1.639077         0.742874         0.975995
 H        -0.396179        -0.809078         0.402020
 H        -0.371022         0.723238        -0.547566
 H        -0.041229        -0.958689        -1.319348
 H         1.888492        -1.948154         1.167231
 H         2.611831        -2.019260        -0.464777
 H         3.974979        -1.360442         1.593061
 H         4.113271         1.966042        -0.729747
 H         1.844152         1.629314        -1.531819
 H         2.754270        -0.069014        -1.917963
 H         3.449653         1.324023         1.991450
