19
Iteration:  4857
 C         0.118289        -0.371558        -0.693353
 C         1.504498        -0.031298        -0.130804
 C         2.108047        -1.319556         0.496450
 C         3.514316        -0.731448         1.030285
 O         4.394719        -0.336817        -0.114888
 C         3.651601         0.934632        -0.327199
 C         2.462530         0.747666        -1.047435
 C         3.045116         0.828327         1.122463
 O         1.629125         0.933475         1.046216
 H        -0.751073         0.220186        -0.526090
 H         0.185629        -0.270236        -1.860488
 H        -0.171081        -1.401600        -0.400188
 H         1.483258        -1.830347         1.260663
 H         2.356116        -2.127196        -0.228023
 H         4.131409        -1.406448         1.667224
 H         4.478870         1.681010        -0.434446
 H         2.006972         1.849379        -1.231353
 H         2.827300         0.270484        -2.090646
 H         3.531201         1.565023         1.705887
