19
Iteration:   978charge 0 multiplicity 1
 C         0.167861        -0.489042        -0.677242
 C         1.540688        -0.088508        -0.139136
 C         2.252368        -1.247277         0.484899
 C         3.530581        -0.624988         0.900412
 O         4.258866        -0.295263        -0.304998
 C         3.664443         1.028782        -0.247885
 C         2.390541         0.848898        -1.045578
 C         3.043088         0.805556         1.212635
 O         1.620126         0.740527         1.125891
 H        -0.361661        -1.074585         0.087278
 H        -0.423914         0.373497        -0.925819
 H         0.268278        -1.200996        -1.496599
 H         1.658859        -1.664886         1.433702
 H         2.507577        -2.114245        -0.057921
 H         4.164369        -1.020720         1.806742
 H         4.468042         1.833918        -0.468964
 H         1.876312         1.847927        -1.098627
 H         2.606715         0.399035        -2.053464
 H         3.406756         1.469415         1.939967
