19
Iteration:  4861
 C         0.105903        -0.362495        -0.705222
 C         1.499756        -0.064561        -0.163200
 C         2.124176        -1.307219         0.516688
 C         3.520833        -0.721739         1.037895
 O         4.375020        -0.357046        -0.134472
 C         3.661462         0.950661        -0.315129
 C         2.490882         0.753063        -1.056597
 C         3.024862         0.828659         1.093635
 O         1.632652         0.916903         1.050752
 H        -0.748176         0.271333        -0.350394
 H         0.204044        -0.278109        -1.759607
 H        -0.037053        -1.390720        -0.396899
 H         1.453918        -1.689646         1.337837
 H         2.291356        -2.069177        -0.249001
 H         4.197218        -1.346023         1.697284
 H         4.431867         1.658144        -0.396874
 H         2.116469         1.821103        -1.109791
 H         2.792872         0.338180        -1.994102
 H         3.353028         1.585725         1.827439
