19
Iteration:  2011charge 0 multiplicity 1
 C         0.177503        -0.480017        -0.647579
 C         1.513700        -0.110108        -0.176074
 C         2.321286        -1.358092         0.481809
 C         3.592627        -0.633824         0.992083
 O         4.256914        -0.318097        -0.285424
 C         3.667389         0.947919        -0.301411
 C         2.362778         0.886782        -1.103637
 C         2.992762         0.838363         1.241423
 O         1.561924         0.856986         1.150535
 H        -0.362193        -0.999464         0.075258
 H        -0.182766         0.464429        -0.985020
 H         0.247083        -0.891400        -1.619819
 H         1.798275        -1.678175         1.325809
 H         2.488731        -2.327734        -0.220436
 H         4.281416        -1.065903         1.713485
 H         4.452261         1.647825        -0.632277
 H         2.024521         1.953012        -1.163290
 H         2.581599         0.542592        -2.099548
 H         3.338793         1.413839         2.087972
