19
Iteration:  2962
 C         0.014042        -0.182950        -0.362826
 C         1.489595        -0.058494        -0.205980
 C         2.229435        -1.380524         0.267446
 C         3.407699        -0.699741         0.939755
 O         4.559633        -0.115777         0.057655
 C         3.722727         0.915284        -0.286491
 C         2.494260         0.621250        -1.218663
 C         2.988754         0.760021         1.097511
 O         1.555188         0.753315         0.987769
 H        -0.392926        -0.888033         0.339502
 H        -0.487364         0.835244        -0.191597
 H        -0.394386        -0.532332        -1.359804
 H         1.659685        -1.728279         1.140124
 H         2.501057        -2.092478        -0.503808
 H         3.943945        -1.227369         1.766333
 H         4.312470         1.671607        -0.734921
 H         2.176261         1.558278        -1.668222
 H         2.793128        -0.111782        -2.038964
 H         3.212360         1.392657         1.920224
