19
Iteration:  2673charge 0 multiplicity 1
 C        -0.080459        -0.177163        -0.472418
 C         1.490263        -0.049561        -0.162721
 C         2.254842        -1.359035         0.291810
 C         3.665449        -0.818629         0.887887
 O         4.580990        -0.037544         0.115798
 C         3.553059         0.953947        -0.284704
 C         2.372065         0.576209        -1.260848
 C         3.019077         0.658431         1.128894
 O         1.627253         0.822325         1.020916
 H        -0.629354        -0.170017         0.545346
 H        -0.432102         0.897636        -0.731761
 H        -0.487511        -0.964405        -1.124981
 H         1.708811        -1.881023         1.035037
 H         2.339691        -2.095758        -0.600655
 H         4.148451        -1.304807         1.732332
 H         4.234785         1.855430        -0.540620
 H         1.883943         1.389018        -1.858883
 H         2.603070        -0.137015        -1.974404
 H         3.332089         1.222964         1.963959
