19
Iteration:  1587
 C         0.083031        -0.387339        -0.567660
 C         1.562290        -0.097070        -0.131138
 C         2.367466        -1.346687         0.408347
 C         3.575068        -0.714115         0.949666
 O         4.312781        -0.210860        -0.186596
 C         3.630269         1.012573        -0.277911
 C         2.392900         0.773024        -1.124424
 C         2.974308         0.813224         1.171263
 O         1.610031         0.787442         1.069939
 H        -0.443964        -0.849030         0.233440
 H        -0.395028         0.571710        -0.826195
 H        -0.008793        -1.111809        -1.386766
 H         1.623442        -1.688848         1.197093
 H         2.583408        -2.082852        -0.299127
 H         4.078011        -1.087806         1.845209
 H         4.331644         1.875800        -0.530910
 H         1.746693         1.615006        -1.270622
 H         2.610379         0.229970        -2.040065
 H         3.400494         1.434406         1.967430
