19
Iteration:  1217
 C         0.009573        -0.263613        -0.411703
 C         1.460403        -0.119324        -0.159489
 C         2.402865        -1.348739         0.309216
 C         3.575008        -0.671687         0.945016
 O         4.457850        -0.159606        -0.036809
 C         3.633037         0.994823        -0.322010
 C         2.388501         0.645177        -1.206456
 C         2.962700         0.788981         1.207680
 O         1.555998         0.737825         1.009254
 H        -0.517304        -0.951678         0.292767
 H        -0.312997         0.819677        -0.510508
 H        -0.008246        -0.778789        -1.436923
 H         1.822666        -2.024883         1.049490
 H         2.638656        -1.860648        -0.605412
 H         4.245407        -1.114463         1.634728
 H         4.341860         1.929370        -0.564716
 H         1.937001         1.609431        -1.481843
 H         2.470972         0.114059        -2.160862
 H         3.289276         1.472020         2.043596
