19
Iteration:  2468
 C         0.072984        -0.353118        -0.588547
 C         1.514936        -0.060469        -0.126407
 C         2.239995        -1.349701         0.473826
 C         3.555260        -0.567954         0.956524
 O         4.349237        -0.373157        -0.181968
 C         3.693818         0.988996        -0.281929
 C         2.398407         0.842589        -1.077634
 C         3.038177         0.808483         1.144852
 O         1.611662         0.748453         1.026409
 H        -0.633338        -0.997550        -0.007708
 H        -0.511496         0.518326        -0.873850
 H         0.243807        -0.941788        -1.476465
 H         1.731345        -1.654114         1.362038
 H         2.514855        -2.227924        -0.203839
 H         4.193787        -0.921256         1.731053
 H         4.453485         1.732086        -0.490609
 H         1.742906         1.749497        -1.245250
 H         2.672275         0.295301        -2.016315
 H         3.369109         1.507856         1.863555
