19
Iteration:  3585
 C         0.200062        -0.339797        -0.697730
 C         1.529059         0.014494        -0.102051
 C         2.212859        -1.271267         0.472500
 C         3.537141        -0.648140         0.974539
 O         4.311432        -0.347472        -0.214534
 C         3.629839         0.959941        -0.303532
 C         2.411980         0.823057        -1.098705
 C         3.014792         0.755520         1.263063
 O         1.617714         0.756765         1.045849
 H        -0.294891        -0.718257         0.240974
 H        -0.310577         0.427946        -1.195719
 H         0.402667        -1.230013        -1.298555
 H         1.585429        -1.620382         1.320368
 H         2.326708        -2.139602        -0.223690
 H         4.112991        -1.200629         1.777539
 H         4.375026         1.704510        -0.476565
 H         1.870748         1.817431        -1.394343
 H         2.587492         0.290368        -2.132635
 H         3.361182         1.368390         2.145410
