19
Iteration:   800charge 0 multiplicity 1
 C         0.015744        -0.338799        -0.541769
 C         1.544231        -0.063797        -0.125008
 C         2.317888        -1.313801         0.397184
 C         3.586691        -0.637530         0.973724
 O         4.385218        -0.219481        -0.200153
 C         3.652074         1.033530        -0.268229
 C         2.394853         0.668602        -1.123372
 C         3.029719         0.837584         1.157437
 O         1.553032         0.678342         1.064965
 H        -0.504068        -0.911043         0.218715
 H        -0.516330         0.565231        -0.698772
 H         0.005336        -0.766113        -1.522201
 H         1.714958        -1.556588         1.249687
 H         2.553685        -2.126809        -0.386285
 H         4.187387        -1.160078         1.682123
 H         4.453611         1.799106        -0.426166
 H         1.756159         1.525601        -1.322445
 H         2.792289         0.374192        -2.110577
 H         3.364073         1.456613         2.001176
