19
Iteration:  4981
 C         0.137135        -0.270542        -0.598300
 C         1.537395        -0.064909        -0.119210
 C         2.222933        -1.339444         0.501409
 C         3.498950        -0.644811         1.072109
 O         4.285401        -0.401150        -0.124728
 C         3.721722         0.927928        -0.227088
 C         2.456154         0.707912        -1.233679
 C         3.063480         0.861854         1.173268
 O         1.568748         0.884675         0.911671
 H        -0.528251        -0.955015         0.002188
 H        -0.436000         0.596347        -0.719323
 H         0.185938        -0.905456        -1.502679
 H         1.616993        -1.722227         1.364803
 H         2.574089        -2.122062        -0.195969
 H         4.122583        -1.222410         1.834135
 H         4.334337         1.773923        -0.404939
 H         1.952510         1.760508        -1.522295
 H         2.739657         0.048581        -2.050989
 H         3.429488         1.649357         1.942141
