19
Iteration:  2483charge 0 multiplicity 1
 C         0.061246        -0.323312        -0.526998
 C         1.509999        -0.100165        -0.121392
 C         2.258018        -1.306132         0.367464
 C         3.480536        -0.706439         0.954309
 O         4.451820        -0.228283        -0.150593
 C         3.667267         0.969754        -0.270144
 C         2.421338         0.644018        -1.123602
 C         3.018976         0.856640         1.159028
 O         1.606225         0.840629         1.033781
 H        -0.425380        -0.746891         0.359675
 H        -0.420809         0.654254        -0.570654
 H         0.029629        -0.974329        -1.432216
 H         1.638836        -1.908751         1.078162
 H         2.466791        -1.957252        -0.428447
 H         3.922140        -1.391785         1.760266
 H         4.212840         1.836987        -0.627146
 H         2.013516         1.592299        -1.398527
 H         2.656123         0.103882        -2.095772
 H         3.287318         1.359785         2.121249
