19
Iteration:  2984charge 0 multiplicity 1
 C         0.035257        -0.203011        -0.538636
 C         1.498231        -0.179602        -0.171985
 C         2.312570        -1.336719         0.395793
 C         3.538846        -0.643600         1.049218
 O         4.460905        -0.354374        -0.093307
 C         3.642017         0.979093        -0.235272
 C         2.377038         0.730775        -1.150061
 C         2.985726         0.785918         1.142908
 O         1.624689         0.804810         0.945149
 H        -0.631928        -0.673694         0.150673
 H        -0.394833         0.856470        -0.716616
 H        -0.227085        -0.764882        -1.474813
 H         1.687303        -1.748162         1.199141
 H         2.654570        -2.018056        -0.391040
 H         4.189354        -1.190789         1.784528
 H         4.231229         1.845034        -0.421502
 H         1.884858         1.708376        -1.203042
 H         2.644220         0.432473        -2.204764
 H         3.236034         1.517830         1.906458
