19
Iteration:  3758charge 0 multiplicity 1
 C         0.219405        -0.301383        -0.669185
 C         1.532291        -0.063323        -0.068077
 C         2.188508        -1.314335         0.501827
 C         3.551943        -0.705822         0.917991
 O         4.296594        -0.335320        -0.191150
 C         3.662741         0.981604        -0.245173
 C         2.427870         0.804765        -1.115468
 C         3.010066         0.838112         1.142030
 O         1.590516         0.779593         1.065975
 H        -0.446052        -0.759784         0.168041
 H        -0.199108         0.653758        -1.024583
 H         0.422406        -1.033965        -1.499235
 H         1.577224        -1.833488         1.241326
 H         2.387816        -2.110831        -0.259822
 H         4.086801        -1.208092         1.775442
 H         4.356846         1.789703        -0.367174
 H         1.943084         1.709638        -1.389165
 H         2.653495         0.331088        -2.173790
 H         3.221201         1.252207         2.127044
