19
Iteration:   718
 C         0.149795        -0.385578        -0.509192
 C         1.561853        -0.068906        -0.152608
 C         2.269057        -1.294117         0.426643
 C         3.551485        -0.682891         0.900875
 O         4.375923        -0.232098        -0.161719
 C         3.585404         1.023247        -0.274027
 C         2.379794         0.763580        -1.130802
 C         2.981180         0.785923         1.176342
 O         1.612980         0.755958         1.026002
 H        -0.451339        -0.701560         0.392466
 H        -0.307962         0.588685        -0.854940
 H         0.043940        -1.195534        -1.281754
 H         1.677556        -1.828805         1.256376
 H         2.476500        -2.046529        -0.266350
 H         4.065913        -1.342400         1.682423
 H         4.343262         1.817649        -0.457565
 H         1.808715         1.670945        -1.315372
 H         2.715050         0.211747        -2.017087
 H         3.377733         1.524788         1.945537
