19
Iteration:  4740
 C         0.112776        -0.360531        -0.694258
 C         1.539877        -0.024866        -0.134512
 C         2.186029        -1.229572         0.337550
 C         3.433999        -0.693575         1.002436
 O         4.374206        -0.351991        -0.147274
 C         3.684974         0.891855        -0.177785
 C         2.410142         0.747801        -1.068477
 C         3.069777         0.836281         1.174388
 O         1.672662         0.859949         1.078687
 H         0.231330        -0.333528        -1.785085
 H        -0.201097        -1.437900        -0.453074
 H        -0.491293         0.445794        -0.288827
 H         1.494939        -1.733410         1.081944
 H         2.375815        -2.024393        -0.407916
 H         3.992307        -1.411840         1.757311
 H         4.268748         1.704199        -0.605593
 H         1.805561         1.647092        -1.227055
 H         2.509726         0.315914        -2.072379
 H         3.331730         1.468040         1.993685
