19
Iteration:  1492
 C        -0.073528        -0.198053        -0.336463
 C         1.496032        -0.169330        -0.221282
 C         2.408077        -1.390564         0.206845
 C         3.604189        -0.611232         1.035717
 O         4.570050        -0.150035        -0.038225
 C         3.641162         0.998994        -0.270362
 C         2.426950         0.590460        -1.293767
 C         2.895930         0.787888         1.115616
 O         1.505053         0.732829         1.033471
 H        -0.311738        -0.581863         0.669852
 H        -0.214939         0.901224        -0.362311
 H        -0.597818        -0.820423        -1.066789
 H         1.807629        -2.091606         0.864089
 H         2.701023        -1.923977        -0.643821
 H         4.072105        -1.130601         1.804583
 H         4.053493         2.076454        -0.370540
 H         1.793250         1.544467        -1.471565
 H         2.927775         0.011236        -2.102838
 H         3.100719         1.364554         2.078540
