19
Iteration:  1614
 C        -0.058723        -0.259278        -0.417533
 C         1.459905        -0.103035        -0.136805
 C         2.304954        -1.314302         0.258188
 C         3.513676        -0.687208         0.895362
 O         4.640241        -0.070951        -0.045688
 C         3.576797         0.965480        -0.294009
 C         2.435111         0.580886        -1.178443
 C         2.965581         0.758538         1.148660
 O         1.599119         0.754155         1.061909
 H        -0.491196        -0.700785         0.548595
 H        -0.557263         0.673603        -0.684658
 H        -0.223628        -0.997208        -1.221650
 H         1.702288        -1.947751         0.896844
 H         2.723401        -2.000088        -0.610254
 H         3.818575        -1.147763         1.822253
 H         4.000472         1.952295        -0.517713
 H         1.855985         1.483232        -1.621125
 H         2.891658        -0.107905        -1.961396
 H         3.405109         1.347377         1.949268
