19
Iteration:   672
 C         0.143943        -0.382897        -0.681428
 C         1.474778        -0.080029        -0.061372
 C         2.259989        -1.262071         0.407744
 C         3.589748        -0.662784         0.979791
 O         4.378843        -0.264075        -0.203480
 C         3.574336         0.986202        -0.327783
 C         2.321413         0.747148        -1.126798
 C         3.068917         0.847059         1.164074
 O         1.643782         0.750325         1.188443
 H        -0.597536        -1.051741        -0.120805
 H        -0.338114         0.521657        -1.088999
 H         0.454766        -1.054731        -1.523265
 H         1.678794        -1.534403         1.329769
 H         2.215017        -2.119212        -0.205078
 H         4.292735        -1.187086         1.749785
 H         4.236112         1.753489        -0.594979
 H         1.897268         1.737737        -1.299475
 H         2.490677         0.152390        -2.066878
 H         3.425924         1.465751         1.977155
