19
Iteration:  2525charge 0 multiplicity 1
 C        -0.143278        -0.126405        -0.356955
 C         1.456153        -0.167880        -0.207482
 C         2.284653        -1.346824         0.220181
 C         3.536001        -0.618338         0.954850
 O         4.585794        -0.126249         0.025364
 C         3.730341         0.957068        -0.301844
 C         2.493671         0.542074        -1.161361
 C         3.001057         0.792644         1.120232
 O         1.521282         0.702212         0.991017
 H        -0.444053        -0.389307         0.700974
 H        -0.476767         0.837676        -0.636178
 H        -0.596623        -0.766359        -1.084124
 H         1.736058        -2.014355         0.917994
 H         2.678194        -1.946103        -0.571019
 H         4.082525        -1.212993         1.770168
 H         4.238689         1.817013        -0.618139
 H         1.899113         1.391777        -1.509062
 H         2.769891        -0.047150        -2.171272
 H         3.416132         1.499644         1.891181
