19
Iteration:  2188
 C        -0.034701        -0.262337        -0.532950
 C         1.510206        -0.138482        -0.144566
 C         2.407626        -1.386652         0.371367
 C         3.566182        -0.618429         1.033577
 O         4.401664        -0.232805        -0.156988
 C         3.636964         0.985450        -0.281076
 C         2.403471         0.712999        -1.155713
 C         2.971823         0.811008         1.164782
 O         1.598440         0.769739         1.023580
 H        -0.594569        -0.770739         0.288758
 H        -0.279955         0.767198        -0.681936
 H        -0.111159        -0.853627        -1.412065
 H         1.877464        -1.795290         1.272384
 H         2.591602        -2.132190        -0.353993
 H         4.105369        -1.369330         1.651213
 H         4.292535         1.781186        -0.483725
 H         1.964885         1.658320        -1.408432
 H         2.764182         0.163927        -2.102293
 H         3.163769         1.491252         2.060448
