19
Iteration:  2316
 C         0.106652        -0.412697        -0.706869
 C         1.535364        -0.125699        -0.065484
 C         2.196736        -1.299233         0.496053
 C         3.535618        -0.715614         0.874427
 O         4.386168        -0.253762        -0.171172
 C         3.627004         1.021996        -0.322271
 C         2.375250         0.725375        -1.063470
 C         3.064208         0.818347         1.194749
 O         1.656908         0.887787         1.112827
 H        -0.510643        -0.961818         0.094736
 H        -0.519437         0.383431        -1.109771
 H         0.261078        -1.032414        -1.573069
 H         1.656520        -1.676430         1.339881
 H         2.179697        -2.194662        -0.268767
 H         4.169463        -1.223098         1.606123
 H         4.344216         1.818304        -0.548808
 H         1.730781         1.599835        -1.293353
 H         2.537550         0.246739        -2.042126
 H         3.489906         1.525012         2.009394
