19
Iteration:  1062
 C         0.021062        -0.192513        -0.325895
 C         1.509797        -0.143676        -0.147634
 C         2.357653        -1.340605         0.236354
 C         3.536828        -0.677694         0.949466
 O         4.533499        -0.117330        -0.039836
 C         3.540397         1.014995        -0.266103
 C         2.397615         0.586410        -1.207639
 C         2.957313         0.763517         1.178046
 O         1.575417         0.689663         0.928746
 H        -0.550545        -0.631314         0.584268
 H        -0.409804         0.817842        -0.365800
 H        -0.107312        -0.685913        -1.310157
 H         1.741408        -1.804418         0.943953
 H         2.907777        -1.976510        -0.498102
 H         3.973994        -1.092038         1.770382
 H         4.225034         1.882898        -0.455090
 H         1.959715         1.490083        -1.598515
 H         2.777999         0.086461        -2.127496
 H         3.207704         1.401371         1.995299
