19
Iteration:  2535
 C        -0.046103        -0.155454        -0.417906
 C         1.447154        -0.192025        -0.220953
 C         2.264727        -1.415068         0.281926
 C         3.605909        -0.611745         0.937438
 O         4.519805        -0.192000        -0.021320
 C         3.656564         0.948497        -0.295140
 C         2.491021         0.635486        -1.145544
 C         2.924302         0.816542         1.104277
 O         1.591579         0.731927         1.028857
 H        -0.487773        -0.281945         0.631002
 H        -0.245290         0.852563        -0.559961
 H        -0.464186        -0.870730        -1.060946
 H         1.707709        -2.023296         1.012957
 H         2.697908        -2.069471        -0.483453
 H         3.979025        -1.029142         1.884298
 H         4.217103         1.752197        -0.649927
 H         2.091090         1.659489        -1.288586
 H         2.791353         0.200305        -2.198386
 H         3.126845         1.624629         1.824223
