19
Iteration:  1912
 C         0.047999        -0.224813        -0.365095
 C         1.527103        -0.172867        -0.247300
 C         2.325318        -1.299683         0.274230
 C         3.476493        -0.644267         0.957282
 O         4.546583        -0.095056        -0.003196
 C         3.629939         0.922360        -0.266160
 C         2.383827         0.645749        -1.208408
 C         2.938298         0.759197         1.106137
 O         1.558639         0.712244         1.032668
 H        -0.356636        -0.579238         0.573007
 H        -0.263389         0.837927        -0.449742
 H        -0.432916        -0.855049        -1.135631
 H         1.856219        -2.003513         0.896456
 H         2.780201        -2.071394        -0.605925
 H         3.959915        -1.106495         1.839090
 H         4.147759         1.850292        -0.465457
 H         1.889085         1.554934        -1.766526
 H         2.722746        -0.025078        -2.005943
 H         3.382560         1.469105         1.805208
