19
Iteration:  1171
 C         0.051927        -0.245285        -0.430904
 C         1.457991        -0.134693        -0.147245
 C         2.361012        -1.348321         0.271698
 C         3.560646        -0.673766         0.889000
 O         4.503079        -0.080697        -0.040172
 C         3.561008         0.962628        -0.303416
 C         2.442671         0.636242        -1.229880
 C         2.971011         0.807246         1.188344
 O         1.562720         0.738295         1.060644
 H        -0.294695        -0.606071         0.604237
 H        -0.483763         0.659717        -0.705444
 H        -0.157282        -1.056671        -1.170096
 H         1.697433        -1.785304         1.022247
 H         2.487380        -2.238536        -0.458105
 H         4.000826        -1.289200         1.591561
 H         4.313524         1.786120        -0.424204
 H         1.944452         1.547939        -1.602359
 H         2.776848        -0.068398        -2.044252
 H         3.105625         1.261465         2.169780
