19
Iteration:   256charge 0 multiplicity 1
 C         0.256199        -0.471817        -0.647566
 C         1.530225        -0.024691        -0.032622
 C         2.204584        -1.249754         0.448775
 C         3.497257        -0.684821         0.913615
 O         4.339307        -0.287399        -0.201571
 C         3.593722         0.954420        -0.305368
 C         2.294267         0.846210        -1.027064
 C         3.068786         0.744919         1.148017
 O         1.668784         0.834344         1.102384
 H        -0.491088        -1.134108        -0.253360
 H        -0.336642         0.310018        -1.194454
 H         0.617646        -1.115517        -1.498262
 H         1.587799        -1.808774         1.196417
 H         2.360308        -1.886498        -0.532566
 H         4.121956        -1.241674         1.774933
 H         4.164649         1.819365        -0.557945
 H         1.883051         1.899141        -0.962638
 H         2.459490         0.440506        -2.122035
 H         3.477171         1.369333         1.932212
