19
Iteration:  1269
 C         0.148009        -0.532118        -0.752632
 C         1.497020         0.014377        -0.005023
 C         2.286790        -1.269263         0.525600
 C         3.521013        -0.733468         0.942293
 O         4.374969        -0.242018        -0.277593
 C         3.575380         1.006038        -0.255060
 C         2.328261         0.823692        -1.025283
 C         3.070447         0.747072         1.182414
 O         1.641183         0.837454         1.083835
 H        -0.480938        -1.100916        -0.036098
 H        -0.344952         0.372608        -1.064564
 H         0.481789        -1.105211        -1.613733
 H         1.769442        -1.704464         1.354032
 H         2.261058        -1.936112        -0.409743
 H         4.237499        -1.141452         1.601073
 H         4.218592         1.804802        -0.577369
 H         1.684624         1.694899        -1.323275
 H         2.587516         0.292326        -1.997981
 H         3.517659         1.398363         1.986485
