19
Iteration:  2171charge 0 multiplicity 1
 C         0.166762        -0.366418        -0.634316
 C         1.527037        -0.050857        -0.104212
 C         2.260022        -1.262193         0.493441
 C         3.596418        -0.676108         0.930280
 O         4.367164        -0.294594        -0.226550
 C         3.600667         0.950384        -0.263796
 C         2.358111         0.759262        -1.065593
 C         3.047608         0.811595         1.187322
 O         1.570755         0.791393         1.057832
 H        -0.326682        -0.992403         0.098959
 H        -0.431083         0.520173        -1.021013
 H         0.211430        -1.025363        -1.577851
 H         1.561353        -1.788374         1.205600
 H         2.547528        -2.103371        -0.199135
 H         4.195373        -1.023781         1.770783
 H         4.203372         1.864246        -0.612078
 H         1.717127         1.699397        -1.245146
 H         2.479711         0.357791        -2.065421
 H         3.470413         1.329368         1.991044
