19
Iteration:  2116charge 0 multiplicity 1
 C         0.068137        -0.368621        -0.557738
 C         1.519069        -0.060754        -0.079422
 C         2.308388        -1.317808         0.389359
 C         3.571803        -0.655508         0.960171
 O         4.424650        -0.270873        -0.214276
 C         3.609545         0.960302        -0.256906
 C         2.374263         0.780852        -1.111573
 C         2.992300         0.791556         1.185237
 O         1.583409         0.778503         1.020969
 H        -0.521035        -0.830247         0.238290
 H        -0.224565         0.694317        -0.768086
 H         0.277389        -1.119530        -1.384641
 H         1.718966        -1.768762         1.244069
 H         2.575820        -2.084941        -0.358373
 H         4.055915        -1.118195         1.824020
 H         4.293923         1.865789        -0.466893
 H         1.851339         1.757543        -1.324883
 H         2.550162         0.175131        -1.992044
 H         3.285217         1.519419         1.891386
