19
Iteration:  3273
 C         0.043317        -0.270248        -0.581670
 C         1.419360        -0.072301        -0.189242
 C         2.276566        -1.312851         0.367439
 C         3.504059        -0.644365         0.984222
 O         4.547204        -0.255294        -0.142516
 C         3.667604         0.899317        -0.284533
 C         2.446811         0.696952        -1.121149
 C         2.977638         0.788950         1.193101
 O         1.554130         0.809083         1.085423
 H        -0.367289        -1.083051         0.031689
 H        -0.610999         0.564681        -0.542522
 H         0.011256        -0.699219        -1.640741
 H         1.682577        -1.615193         1.254876
 H         2.625377        -2.080942        -0.298257
 H         4.089226        -1.159543         1.730333
 H         4.332740         1.793953        -0.539139
 H         1.918736         1.669432        -1.360431
 H         2.673431         0.152879        -2.070173
 H         3.316211         1.345891         2.093055
