19
Iteration:  4015
 C         0.192988        -0.304181        -0.695794
 C         1.553980        -0.040976        -0.113585
 C         2.229937        -1.317441         0.551473
 C         3.559705        -0.740609         0.887823
 O         4.331375        -0.327545        -0.233784
 C         3.667400         0.978565        -0.220002
 C         2.478713         0.857347        -1.056192
 C         2.956125         0.818425         1.202188
 O         1.549427         0.772386         1.028033
 H        -0.209642        -1.191358        -0.110501
 H        -0.675775         0.429498        -0.455358
 H         0.169744        -0.538000        -1.749286
 H         1.582510        -1.518020         1.390683
 H         2.219722        -2.239173        -0.031284
 H         4.039187        -1.371700         1.661512
 H         4.425408         1.684049        -0.650495
 H         1.896484         1.722266        -1.377391
 H         2.754863         0.437222        -2.014274
 H         3.352912         1.229265         2.117617
