19
Iteration:  2222
 C         0.001377        -0.175636        -0.329549
 C         1.473647        -0.127701        -0.149074
 C         2.316816        -1.334858         0.105049
 C         3.567943        -0.681094         0.925063
 O         4.568836        -0.045726         0.073428
 C         3.617735         0.906715        -0.314851
 C         2.461456         0.514075        -1.203335
 C         2.931094         0.826621         1.150998
 O         1.560054         0.761640         1.007132
 H        -0.451930        -0.590232         0.605892
 H        -0.491186         0.785869        -0.476720
 H        -0.360739        -0.744387        -1.188765
 H         1.778088        -1.795421         1.022554
 H         2.435347        -2.126702        -0.528765
 H         3.881004        -1.507989         1.621669
 H         4.000238         1.833160        -0.625013
 H         1.996803         1.329180        -1.773667
 H         2.690915        -0.292042        -2.032713
 H         3.341680         1.298745         2.040177
