19
Iteration:  2963charge 0 multiplicity 1
 C         0.008873        -0.183459        -0.370598
 C         1.497496        -0.058939        -0.211811
 C         2.229764        -1.387013         0.277469
 C         3.415688        -0.700622         0.934409
 O         4.556527        -0.122697         0.056639
 C         3.715846         0.914966        -0.285809
 C         2.494754         0.626235        -1.212970
 C         2.995300         0.768591         1.096041
 O         1.549510         0.751852         0.985117
 H        -0.361590        -0.874407         0.360088
 H        -0.479879         0.846203        -0.197702
 H        -0.385056        -0.521998        -1.356927
 H         1.665499        -1.730369         1.147407
 H         2.505979        -2.114778        -0.507007
 H         3.940044        -1.228840         1.789657
 H         4.334307         1.672862        -0.759400
 H         2.146998         1.560898        -1.633830
 H         2.763740        -0.061837        -2.013867
 H         3.200062         1.404326         1.946582
