19
Iteration:  4812charge 0 multiplicity 1
 C        -0.009651        -0.130645        -0.498022
 C         1.492640        -0.091661        -0.167624
 C         2.266257        -1.429559         0.379344
 C         3.439363        -0.732480         1.025584
 O         4.478637        -0.220900        -0.035926
 C         3.686580         0.933841        -0.232686
 C         2.507267         0.659115        -1.250127
 C         3.055735         0.858489         1.124566
 O         1.524959         0.758246         0.976499
 H        -0.269570         0.870286        -0.869040
 H        -0.147557        -0.903006        -1.298354
 H        -0.480981        -0.312619         0.489999
 H         1.677138        -1.987583         1.108136
 H         2.503640        -2.063035        -0.502909
 H         4.059773        -1.178607         1.761345
 H         4.397380         1.784539        -0.440868
 H         2.214697         1.710153        -1.626719
 H         2.847112        -0.114732        -2.066655
 H         3.195670         1.563197         1.987486
