19
Iteration:    78
 C         0.148684        -0.316508        -0.607486
 C         1.527532        -0.046971        -0.085639
 C         2.306221        -1.362827         0.399492
 C         3.508478        -0.690397         0.952362
 O         4.414603        -0.215288        -0.138371
 C         3.575646         0.999867        -0.288749
 C         2.303270         0.688345        -1.068862
 C         3.077725         0.810762         1.150415
 O         1.627477         0.790587         1.038155
 H        -0.591762        -0.802997         0.070959
 H        -0.390351         0.555697        -0.919812
 H         0.270723        -1.021465        -1.419450
 H         1.655029        -1.698873         1.205079
 H         2.456198        -2.070997        -0.475417
 H         3.997043        -1.160341         1.814518
 H         4.168635         1.674845        -0.748416
 H         1.707463         1.636501        -1.291126
 H         2.488625         0.239133        -1.998795
 H         3.513229         1.233857         2.112276
