19
Iteration:  2405
 C        -0.043091        -0.311496        -0.525161
 C         1.477647        -0.086824        -0.157146
 C         2.256946        -1.298550         0.365892
 C         3.552311        -0.630316         0.932789
 O         4.504283        -0.207962        -0.122745
 C         3.658406         0.922828        -0.292795
 C         2.419057         0.675029        -1.177061
 C         2.993556         0.788644         1.219255
 O         1.622017         0.822492         1.097198
 H        -0.495253        -0.874397         0.338362
 H        -0.470230         0.596076        -0.848089
 H        -0.008416        -0.991264        -1.372892
 H         1.606084        -1.835136         1.061392
 H         2.505160        -1.968241        -0.441945
 H         4.030103        -1.338671         1.656066
 H         4.206007         1.790145        -0.503170
 H         2.018265         1.497997        -1.701145
 H         2.743815        -0.122893        -1.944542
 H         3.383986         1.482572         1.942462
