19
Iteration:  2971
 C        -0.024543        -0.177293        -0.444435
 C         1.528364        -0.088724        -0.242713
 C         2.251533        -1.396208         0.339352
 C         3.540119        -0.692577         0.929513
 O         4.522574        -0.236814         0.037213
 C         3.664925         0.958988        -0.298810
 C         2.468477         0.669337        -1.143725
 C         2.992968         0.850441         1.121558
 O         1.549930         0.753000         0.953183
 H        -0.254634        -0.760932         0.449390
 H        -0.390516         0.848744        -0.257393
 H        -0.317504        -0.587165        -1.461057
 H         1.640427        -1.894372         1.129903
 H         2.450883        -2.190813        -0.347429
 H         3.835855        -1.206348         1.833482
 H         4.279687         1.740665        -0.640047
 H         1.905998         1.610215        -1.342113
 H         2.666013         0.109067        -2.186823
 H         3.282098         1.357817         2.007072
