19
Iteration:  2994
 C         0.057649        -0.277842        -0.630155
 C         1.516493        -0.069581        -0.119257
 C         2.336346        -1.320039         0.460477
 C         3.509247        -0.665661         1.069163
 O         4.353829        -0.302899        -0.196248
 C         3.634189         0.890117        -0.243873
 C         2.373390         0.784920        -1.130967
 C         3.071617         0.764461         1.169701
 O         1.608130         0.818507         1.002416
 H        -0.661205        -0.560704         0.109626
 H        -0.138442         0.765538        -1.046762
 H         0.227212        -0.903865        -1.557151
 H         1.742880        -1.934600         1.166718
 H         2.742539        -2.020420        -0.261882
 H         4.010003        -1.161446         1.935989
 H         4.289925         1.663587        -0.491202
 H         1.795200         1.710126        -1.315308
 H         2.632378         0.246784        -2.145879
 H         3.293933         1.440658         1.969350
