19
Iteration:  3513
 C        -0.106598        -0.177274        -0.474805
 C         1.481259        -0.112588        -0.267791
 C         2.323297        -1.370578         0.256312
 C         3.519358        -0.611998         1.015607
 O         4.478965        -0.220314         0.043594
 C         3.629124         0.957022        -0.276444
 C         2.442766         0.617689        -1.230825
 C         3.034432         0.820770         1.199971
 O         1.636322         0.724403         1.038288
 H        -0.393090        -0.532086         0.494379
 H        -0.381184         0.945689        -0.550477
 H        -0.436638        -0.788288        -1.411284
 H         1.801116        -2.155749         0.874711
 H         2.779724        -1.761442        -0.644797
 H         3.979783        -1.079473         1.846218
 H         4.298305         1.724712        -0.779256
 H         2.051633         1.571884        -1.645675
 H         2.728217        -0.059934        -2.150860
 H         3.161528         1.364573         2.161181
