19
Iteration:  3049charge 0 multiplicity 1
 C         0.003542        -0.321271        -0.652322
 C         1.484880        -0.010808        -0.161612
 C         2.245477        -1.341741         0.445451
 C         3.648958        -0.724448         0.938309
 O         4.427779        -0.293701        -0.109052
 C         3.648693         0.968389        -0.249760
 C         2.404125         0.765236        -1.099359
 C         3.026497         0.733628         1.207902
 O         1.611486         0.880219         1.002992
 H        -0.583550        -0.626787         0.196510
 H        -0.494421         0.569846        -1.201948
 H         0.181684        -1.261972        -1.261023
 H         1.679987        -1.747494         1.300889
 H         2.357577        -2.231485        -0.203063
 H         4.097924        -1.292372         1.806200
 H         4.294717         1.756338        -0.504035
 H         1.735465         1.665410        -1.267396
 H         2.679195         0.214072        -2.115793
 H         3.196766         1.520049         1.965389
