19
Iteration:  4615
 C         0.063765        -0.279054        -0.595684
 C         1.538101        -0.016596        -0.155160
 C         2.246224        -1.397485         0.408868
 C         3.548283        -0.755322         0.991005
 O         4.327548        -0.321371        -0.142894
 C         3.652861         1.015414        -0.200105
 C         2.484308         0.841609        -1.144508
 C         3.017432         0.725205         1.175574
 O         1.592705         0.814829         1.013781
 H        -0.109870        -1.365457        -0.372674
 H        -0.476649         0.415683        -0.038112
 H        -0.094241        -0.036073        -1.670409
 H         1.470229        -1.882872         0.999696
 H         2.503995        -2.032520        -0.448508
 H         4.004486        -1.135017         1.873587
 H         4.375414         1.834196        -0.334921
 H         1.895273         1.828673        -1.516702
 H         2.945775         0.283391        -2.031101
 H         3.461901         1.360783         2.008554
