19
Iteration:  3938
 C        -0.025245        -0.172514        -0.450084
 C         1.491565        -0.036130        -0.272641
 C         2.308265        -1.411616         0.266109
 C         3.543276        -0.697447         1.022426
 O         4.459229        -0.220921         0.070825
 C         3.672688         0.983634        -0.272870
 C         2.429831         0.668794        -1.200748
 C         2.991878         0.758346         1.157970
 O         1.625321         0.754682         0.954292
 H        -0.391821        -0.530662         0.556632
 H        -0.531686         0.874312        -0.760267
 H        -0.433208        -0.991526        -1.135527
 H         1.599534        -1.884856         0.954843
 H         2.644299        -2.069352        -0.539740
 H         3.937792        -1.460170         1.706872
 H         4.220465         1.963086        -0.452502
 H         1.920911         1.663047        -1.433271
 H         2.668792         0.211635        -2.114161
 H         3.386236         1.340560         1.977011
