19
Iteration:   413
 C         0.123980        -0.419742        -0.688580
 C         1.514951        -0.024562        -0.067472
 C         2.241332        -1.265521         0.387232
 C         3.524321        -0.710747         0.938068
 O         4.382222        -0.282241        -0.240280
 C         3.612885         0.973064        -0.258566
 C         2.336025         0.767370        -1.104507
 C         3.073435         0.835918         1.195039
 O         1.640025         0.800481         1.204084
 H        -0.502246        -1.075787        -0.065415
 H        -0.457634         0.265876        -1.233680
 H         0.532264        -1.024572        -1.480857
 H         1.705181        -1.788415         1.193977
 H         2.571936        -1.943687        -0.292970
 H         4.141323        -1.315371         1.614276
 H         4.228743         1.922123        -0.539167
 H         1.903150         1.829513        -1.157209
 H         2.350255         0.386059        -2.193663
 H         3.362482         1.359415         2.087920
