19
Iteration:  4594
 C         0.119985        -0.326688        -0.784210
 C         1.478146        -0.045096        -0.092720
 C         2.210512        -1.231613         0.371540
 C         3.487402        -0.692800         0.890442
 O         4.348158        -0.311002        -0.195515
 C         3.712805         0.952988        -0.236575
 C         2.387041         0.687712        -1.026246
 C         3.053150         0.791176         1.272659
 O         1.661776         0.805641         1.128865
 H        -0.261531        -1.297070        -0.400954
 H        -0.522833         0.489794        -0.513927
 H         0.213139        -0.209772        -1.884011
 H         1.650245        -1.590704         1.263662
 H         2.449652        -2.123924        -0.202440
 H         4.039971        -1.238158         1.620996
 H         4.355321         1.822281        -0.377613
 H         1.977424         1.763354        -1.126577
 H         2.450113         0.221441        -2.059002
 H         3.415895         1.392038         2.171846
