19
Iteration:  2098charge 0 multiplicity 1
 C         0.054795        -0.195175        -0.434301
 C         1.507012        -0.173492        -0.229530
 C         2.331212        -1.408426         0.344798
 C         3.501251        -0.672612         0.966004
 O         4.424457        -0.143040        -0.025813
 C         3.651474         1.039843        -0.320922
 C         2.405039         0.636538        -1.197615
 C         3.019462         0.809712         1.129913
 O         1.590288         0.718232         1.047951
 H        -0.349528        -0.647393         0.458494
 H        -0.394717         0.810782        -0.604849
 H        -0.388865        -0.857072        -1.168313
 H         1.819478        -1.994125         1.022879
 H         2.676600        -2.151463        -0.489743
 H         4.061100        -1.227833         1.721704
 H         4.120892         1.967313        -0.712214
 H         1.811990         1.521391        -1.375617
 H         2.703666         0.308961        -2.157055
 H         3.377766         1.403251         2.014385
