19
Iteration:  1481charge 0 multiplicity 1
 C        -0.057907        -0.190011        -0.312915
 C         1.424867        -0.183346        -0.206810
 C         2.390078        -1.324088         0.221591
 C         3.600937        -0.616313         1.034751
 O         4.553298        -0.131615         0.000052
 C         3.618837         0.999691        -0.259466
 C         2.411932         0.664788        -1.219142
 C         2.928852         0.772389         1.119140
 O         1.564767         0.633040         0.945766
 H        -0.494825        -0.461819         0.669255
 H        -0.526241         0.816747        -0.437126
 H        -0.528857        -0.764222        -1.119224
 H         1.985187        -2.117931         0.916070
 H         2.893581        -1.785632        -0.563031
 H         3.985435        -1.207999         1.793178
 H         4.282053         1.870283        -0.641644
 H         2.056276         1.468502        -1.949346
 H         2.644238        -0.055170        -2.046415
 H         3.320450         1.508601         1.883748
