19
Iteration:  2250charge 0 multiplicity 1
 C        -0.041158        -0.280695        -0.485778
 C         1.424910        -0.096155        -0.124206
 C         2.257336        -1.359713         0.312228
 C         3.587679        -0.611093         0.994746
 O         4.540301        -0.189496        -0.084306
 C         3.623383         0.990099        -0.257917
 C         2.438831         0.647916        -1.155614
 C         3.009499         0.747629         1.126507
 O         1.630499         0.811815         0.976541
 H        -0.509710        -0.711212         0.434854
 H        -0.731434         0.547269        -0.642693
 H        -0.176617        -1.028306        -1.260715
 H         1.776612        -1.975016         1.040944
 H         2.554970        -2.047134        -0.585875
 H         4.000219        -1.200048         1.817268
 H         4.072557         2.001135        -0.414513
 H         1.900894         1.510309        -1.562834
 H         2.736351         0.000077        -1.932682
 H         3.360325         1.269601         2.071214
