19
Iteration:  3445
 C         0.184947        -0.378657        -0.732334
 C         1.506186        -0.058605        -0.062044
 C         2.227715        -1.315000         0.465729
 C         3.533620        -0.617457         0.964718
 O         4.336238        -0.420492        -0.203230
 C         3.656364         0.965322        -0.250331
 C         2.397943         0.788980        -1.089148
 C         3.028583         0.895244         1.141861
 O         1.602983         0.820523         1.151983
 H        -0.515336        -1.116721        -0.188678
 H        -0.534692         0.410921        -0.942188
 H         0.324178        -0.859840        -1.774822
 H         1.497907        -1.853443         1.180107
 H         2.605473        -1.965524        -0.406082
 H         4.114013        -1.103277         1.767823
 H         4.341534         1.768373        -0.606292
 H         1.900009         1.828553        -1.288246
 H         2.683152         0.450462        -2.034014
 H         3.445061         1.453876         2.020811
