19
Iteration:  3488
 C         0.097034        -0.270971        -0.532490
 C         1.529257        -0.089605        -0.132509
 C         2.253394        -1.383875         0.402462
 C         3.512189        -0.716290         0.903674
 O         4.498000        -0.269792        -0.094768
 C         3.601922         0.968682        -0.213881
 C         2.454565         0.697720        -1.189719
 C         2.981374         0.795435         1.146608
 O         1.540686         0.859264         1.009263
 H        -0.345301        -1.012608         0.188304
 H        -0.334626         0.707342        -0.475299
 H         0.180818        -0.599909        -1.593081
 H         1.787643        -1.696652         1.382109
 H         2.263481        -2.083903        -0.478754
 H         3.995246        -1.254794         1.736043
 H         4.194641         1.872045        -0.359986
 H         1.913779         1.675346        -1.379418
 H         2.631535         0.178011        -2.031157
 H         3.253840         1.542823         1.930546
