19
Iteration:  2485
 C         0.054908        -0.311923        -0.514136
 C         1.527154        -0.097416        -0.132226
 C         2.255354        -1.308552         0.349250
 C         3.494439        -0.706575         0.964808
 O         4.455814        -0.212169        -0.130176
 C         3.647016         0.958974        -0.274598
 C         2.424846         0.620698        -1.137769
 C         3.025954         0.838788         1.154689
 O         1.591448         0.855855         1.036111
 H        -0.430456        -0.706108         0.357115
 H        -0.471741         0.690742        -0.512444
 H         0.047619        -1.020109        -1.417251
 H         1.637975        -1.932394         1.054992
 H         2.440889        -1.963280        -0.503725
 H         3.952004        -1.424585         1.717236
 H         4.219362         1.890840        -0.607214
 H         1.999893         1.583719        -1.419984
 H         2.652032         0.087555        -2.034009
 H         3.358146         1.345376         2.112170
