19
Iteration:    38
 C        -0.145604        -0.246250        -0.288711
 C         1.435241        -0.046905        -0.252125
 C         2.374223        -1.310466         0.199424
 C         3.507408        -0.637111         0.923859
 O         4.531609        -0.155125         0.016919
 C         3.695959         0.960874        -0.215252
 C         2.445722         0.591008        -1.182842
 C         2.989148         0.759532         1.138652
 O         1.580442         0.724163         0.922327
 H        -0.229273        -0.791551         0.659449
 H        -0.618603         0.742860        -0.317916
 H        -0.500274        -0.830827        -1.145821
 H         1.904187        -1.990665         0.892614
 H         2.797638        -2.065175        -0.495610
 H         4.050459        -1.077883         1.859997
 H         4.291680         2.041343        -0.650967
 H         2.141309         1.550678        -1.690904
 H         2.895220        -0.098011        -1.920005
 H         3.165097         1.342078         2.064139
