19
Iteration:  1859
 C         0.296713        -0.418033        -0.693430
 C         1.566689        -0.050282        -0.100992
 C         2.211603        -1.278355         0.490492
 C         3.530127        -0.685531         0.974897
 O         4.300467        -0.306180        -0.261141
 C         3.579020         1.053793        -0.322560
 C         2.321398         0.775011        -1.072120
 C         3.055443         0.805068         1.232004
 O         1.628430         0.788882         1.103011
 H        -0.293463        -1.072723        -0.061109
 H        -0.434897         0.343686        -1.031765
 H         0.580880        -1.125825        -1.497879
 H         1.678380        -1.604456         1.341627
 H         2.349622        -2.255528        -0.082546
 H         4.150587        -1.119491         1.776513
 H         4.129562         1.806262        -0.665046
 H         1.799240         1.787792        -1.120846
 H         2.365950         0.372734        -2.081607
 H         3.393843         1.499959         2.015410
