19
Iteration:  3076charge 0 multiplicity 1
 C         0.081081        -0.134795        -0.408403
 C         1.539721        -0.079550        -0.211017
 C         2.289603        -1.387623         0.259033
 C         3.442442        -0.605158         1.042023
 O         4.424002        -0.216549        -0.003253
 C         3.664427         0.953557        -0.332488
 C         2.486216         0.618894        -1.173024
 C         2.981190         0.776056         1.103412
 O         1.573791         0.701952         0.995493
 H        -0.323349        -0.662823         0.512134
 H        -0.282601         0.865342        -0.402211
 H        -0.275808        -0.717524        -1.251248
 H         1.653586        -2.119875         0.782887
 H         2.899944        -1.915435        -0.507435
 H         3.756954        -1.058940         1.970124
 H         4.283137         1.882485        -0.627353
 H         1.926548         1.496073        -1.435714
 H         2.689782         0.054852        -2.006878
 H         3.207251         1.483833         1.897453
