19
Iteration:  2276charge 0 multiplicity 1
 C         0.242631        -0.354644        -0.629518
 C         1.551738        -0.093734        -0.118282
 C         2.288334        -1.334090         0.484000
 C         3.594591        -0.658658         0.974862
 O         4.268514        -0.345435        -0.167270
 C         3.638441         0.992993        -0.317657
 C         2.362263         0.835092        -1.171653
 C         2.963754         0.867507         1.136648
 O         1.603414         0.784005         1.109083
 H        -0.344606        -0.725223         0.230559
 H        -0.335105         0.540104        -0.771624
 H         0.169519        -1.110692        -1.418433
 H         1.735956        -1.819808         1.338059
 H         2.511737        -2.006205        -0.265572
 H         4.095834        -1.420023         1.652676
 H         4.309980         1.784530        -0.561263
 H         1.752849         1.700867        -1.212444
 H         2.495019         0.314365        -2.187967
 H         3.270468         1.445913         1.988478
