19
Iteration:  1574charge 0 multiplicity 1
 C         0.231235        -0.410088        -0.602525
 C         1.553020        -0.139245        -0.154728
 C         2.252107        -1.406452         0.499267
 C         3.481013        -0.598059         1.012745
 O         4.313732        -0.280065        -0.247231
 C         3.533900         1.027273        -0.264646
 C         2.319075         0.851230        -1.124061
 C         3.099847         0.809593         1.166550
 O         1.649271         0.806910         1.072978
 H        -0.343220        -0.913393         0.171879
 H        -0.350619         0.459582        -0.961613
 H         0.396183        -1.025874        -1.512257
 H         1.755084        -1.943085         1.264735
 H         2.636609        -2.218574        -0.210448
 H         4.201355        -1.246177         1.587545
 H         4.086292         1.873019        -0.504515
 H         1.856415         1.760117        -1.183844
 H         2.654730         0.625938        -2.104984
 H         3.367426         1.363534         2.012508
