19
Iteration:   784
 C         0.007645        -0.253514        -0.465182
 C         1.463819        -0.168431        -0.163824
 C         2.359629        -1.366078         0.317379
 C         3.550797        -0.636005         0.961301
 O         4.488886        -0.156977        -0.040193
 C         3.551791         0.979509        -0.294742
 C         2.396788         0.704573        -1.208416
 C         3.005563         0.776142         1.138535
 O         1.636874         0.735072         1.070268
 H        -0.527644        -0.810527         0.337274
 H        -0.419511         0.812053        -0.472080
 H        -0.183752        -0.782759        -1.445898
 H         1.803479        -2.097001         0.989201
 H         2.763017        -1.876375        -0.525100
 H         4.040274        -1.186451         1.831603
 H         4.054214         1.916871        -0.650839
 H         1.970595         1.616914        -1.677288
 H         2.489379         0.006916        -2.050461
 H         3.285433         1.490389         1.929065
