19
Iteration:  2694charge 0 multiplicity 1
 C         0.020599        -0.239574        -0.505777
 C         1.480436        -0.098070        -0.127372
 C         2.226500        -1.332056         0.312920
 C         3.487210        -0.663409         0.888449
 O         4.543474        -0.199333        -0.105958
 C         3.673621         0.944325        -0.234340
 C         2.419537         0.645174        -1.098156
 C         3.014128         0.800751         1.154299
 O         1.590642         0.777967         1.029145
 H        -0.688990        -0.352366         0.338001
 H        -0.486972         0.557540        -1.139371
 H        -0.029887        -1.158162        -1.090596
 H         1.724006        -1.813600         1.112771
 H         2.554154        -2.169531        -0.360821
 H         4.047921        -1.253379         1.623183
 H         4.180776         1.960758        -0.341573
 H         1.927127         1.616602        -1.437629
 H         2.667551         0.134954        -1.983028
 H         3.413980         1.309065         1.990342
