19
Iteration:  1678charge 0 multiplicity 1
 C         0.073721        -0.378040        -0.560897
 C         1.542344        -0.088512        -0.130105
 C         2.301981        -1.374337         0.429680
 C         3.558024        -0.651261         0.944160
 O         4.360519        -0.266801        -0.161356
 C         3.595129         1.046389        -0.262465
 C         2.396715         0.804144        -1.161206
 C         3.017089         0.848647         1.199070
 O         1.644790         0.746292         1.074703
 H        -0.554979        -1.040342         0.061521
 H        -0.490795         0.494765        -0.829412
 H         0.162698        -0.993952        -1.449456
 H         1.704200        -1.756879         1.282066
 H         2.501119        -2.023821        -0.386049
 H         4.164174        -1.219422         1.617774
 H         4.376886         1.743087        -0.728548
 H         1.711821         1.679491        -1.424831
 H         2.605539         0.226396        -2.101829
 H         3.231636         1.510194         2.013394
