19
Iteration:  3566
 C        -0.020463        -0.328353        -0.601194
 C         1.513526        -0.098359        -0.209173
 C         2.236000        -1.336071         0.393469
 C         3.521433        -0.728643         0.951629
 O         4.419481        -0.246975        -0.129374
 C         3.660060         1.011266        -0.183696
 C         2.470815         0.738875        -1.152270
 C         3.078211         0.772636         1.131198
 O         1.609147         0.853778         1.111393
 H        -0.742548        -0.479726         0.167375
 H        -0.278379         0.501547        -1.252426
 H        -0.069864        -1.250185        -1.250668
 H         1.589319        -1.713316         1.236418
 H         2.448081        -2.275023        -0.129579
 H         4.129997        -1.334882         1.579274
 H         4.306436         1.895070        -0.298781
 H         1.913950         1.610898        -1.569726
 H         2.800753         0.372509        -2.016153
 H         3.247324         1.365176         2.027372
