19
Iteration:   815
 C         0.183608        -0.405627        -0.609984
 C         1.510496        -0.131560        -0.119163
 C         2.260178        -1.329632         0.500931
 C         3.551812        -0.640136         0.874094
 O         4.357816        -0.267136        -0.280323
 C         3.631455         1.022039        -0.245950
 C         2.391361         0.828231        -1.072379
 C         2.991554         0.785584         1.205465
 O         1.608089         0.810448         1.061854
 H        -0.346562        -1.067001         0.124250
 H        -0.388684         0.542943        -0.755429
 H         0.190467        -1.026433        -1.534482
 H         1.716714        -1.782837         1.393641
 H         2.411037        -2.189011        -0.070539
 H         4.188547        -1.179578         1.723234
 H         4.059430         1.937545        -0.520306
 H         1.903805         1.850523        -1.294605
 H         2.585483         0.095826        -1.939480
 H         3.294971         1.355520         2.129676
