19
Iteration:  3473
 C         0.162069        -0.373047        -0.691105
 C         1.528925        -0.034175        -0.135045
 C         2.191274        -1.295713         0.492411
 C         3.566495        -0.750647         0.940127
 O         4.368949        -0.250642        -0.141870
 C         3.644955         0.980937        -0.277973
 C         2.382518         0.739963        -1.132288
 C         3.010517         0.779974         1.224030
 O         1.628066         0.885187         1.077991
 H        -0.392540        -1.164349        -0.189610
 H        -0.620958         0.396673        -0.667820
 H         0.094485        -0.729570        -1.679949
 H         1.509785        -1.648325         1.242346
 H         2.328855        -2.212184        -0.077581
 H         4.203101        -1.336038         1.668918
 H         4.271510         1.795637        -0.663064
 H         1.909030         1.609617        -1.512977
 H         2.766775         0.213783        -2.105212
 H         3.453040         1.136518         2.131858
