19
Iteration:  2699
 C         0.033419        -0.285970        -0.546398
 C         1.523866        -0.098817        -0.138321
 C         2.228269        -1.322850         0.315836
 C         3.512067        -0.650829         0.892475
 O         4.471796        -0.246994        -0.147659
 C         3.685632         0.953299        -0.209543
 C         2.438400         0.691181        -1.070130
 C         3.021935         0.840722         1.126006
 O         1.566882         0.772522         1.070529
 H        -0.608392        -0.367549         0.383171
 H        -0.311994         0.603774        -1.044040
 H        -0.113059        -1.239592        -1.099585
 H         1.599185        -1.824213         1.133839
 H         2.573852        -2.051398        -0.404655
 H         4.006277        -1.203799         1.693611
 H         4.319454         1.798386        -0.353978
 H         1.897420         1.552654        -1.355970
 H         2.685199         0.076017        -2.008755
 H         3.328180         1.501272         2.012193
