19
Iteration:  2662
 C        -0.051728        -0.094759        -0.386660
 C         1.450068        -0.129352        -0.208477
 C         2.289225        -1.352814         0.201694
 C         3.588779        -0.720279         0.914730
 O         4.590860        -0.088387         0.071865
 C         3.619863         0.916764        -0.248094
 C         2.402827         0.505914        -1.239672
 C         2.970773         0.793387         1.130276
 O         1.581762         0.765811         1.044633
 H        -0.504231        -0.443555         0.606782
 H        -0.373127         0.948648        -0.737134
 H        -0.467152        -0.730002        -1.189149
 H         1.753080        -1.842057         0.983462
 H         2.560731        -2.096330        -0.624709
 H         4.136168        -1.435069         1.538826
 H         3.956768         2.003612        -0.386147
 H         1.993219         1.377671        -1.806424
 H         2.750374        -0.240660        -1.869536
 H         3.514948         1.369249         1.822540
