19
Iteration:  4507charge 0 multiplicity 1
 C        -0.037114        -0.245133        -0.489754
 C         1.408532        -0.028227        -0.178547
 C         2.248493        -1.293637         0.177537
 C         3.508397        -0.743075         0.904016
 O         4.572240        -0.194144         0.095671
 C         3.646282         0.979784        -0.252668
 C         2.426836         0.683503        -1.156917
 C         3.057697         0.680675         1.168560
 O         1.642361         0.790710         1.025531
 H        -0.527477         0.200779         0.385402
 H        -0.470963         0.388110        -1.210449
 H        -0.443015        -1.227537        -0.726462
 H         1.601840        -1.916936         0.818251
 H         2.496457        -1.943344        -0.658028
 H         3.742074        -1.490969         1.605337
 H         4.241018         1.839640        -0.593882
 H         2.086138         1.590934        -1.480275
 H         2.692057         0.151266        -2.069275
 H         3.363624         1.232357         2.092792
