19
Iteration:  4775
 C         0.018339        -0.162492        -0.561723
 C         1.440117        -0.029122        -0.191948
 C         2.270409        -1.310323         0.307463
 C         3.559474        -0.753138         1.010842
 O         4.517744        -0.227217        -0.030035
 C         3.656534         0.882268        -0.203362
 C         2.446684         0.606626        -1.206614
 C         2.976369         0.816653         1.187542
 O         1.589235         0.799358         0.997500
 H        -0.262791         0.401407        -1.507335
 H        -0.388065        -1.168901        -0.579784
 H        -0.593361         0.356063         0.206144
 H         1.654660        -1.771253         1.102196
 H         2.490842        -2.015613        -0.501822
 H         3.908815        -1.490594         1.769564
 H         4.171871         1.823485        -0.437543
 H         2.068098         1.522262        -1.566144
 H         2.764743        -0.014616        -1.972974
 H         3.378713         1.372167         2.066007
