19
Iteration:  4754
 C         0.079475        -0.299855        -0.657054
 C         1.456812        -0.017510        -0.099333
 C         2.196039        -1.312287         0.337546
 C         3.430863        -0.669115         0.929316
 O         4.417110        -0.338868        -0.040291
 C         3.690711         0.998774        -0.320741
 C         2.460365         0.699547        -1.105676
 C         3.114068         0.779797         1.170612
 O         1.593164         0.846822         1.112360
 H         0.005212        -0.075173        -1.786404
 H        -0.204558        -1.316616        -0.492276
 H        -0.826087         0.169945        -0.223693
 H         1.645614        -1.960638         1.025726
 H         2.497433        -1.881584        -0.543108
 H         3.855001        -1.168228         1.827173
 H         4.447231         1.769715        -0.533172
 H         2.174714         1.618282        -1.520523
 H         2.762660         0.084021        -1.878927
 H         3.651536         1.257828         2.086141
