19
Iteration:  3618charge 0 multiplicity 1
 C         0.051496        -0.307388        -0.725826
 C         1.466174        -0.058127        -0.102865
 C         2.264519        -1.379562         0.401633
 C         3.519939        -0.634023         1.022900
 O         4.378965        -0.315709        -0.110178
 C         3.609034         0.944265        -0.275578
 C         2.396740         0.778332        -1.071800
 C         3.087663         0.752260         1.141596
 O         1.672718         0.872696         1.067230
 H        -0.365768        -1.112365        -0.068450
 H        -0.663020         0.468158        -0.701047
 H         0.105738        -0.725071        -1.750246
 H         1.761032        -1.995663         1.169459
 H         2.604454        -2.061011        -0.413216
 H         4.123022        -1.116580         1.827446
 H         4.291259         1.755971        -0.392029
 H         1.840807         1.762544        -1.374499
 H         2.701116         0.303440        -2.092297
 H         3.343260         1.435912         1.968165
