19
Iteration:  2936charge 0 multiplicity 1
 C        -0.087981        -0.210867        -0.463498
 C         1.457334         0.012973        -0.178979
 C         2.291983        -1.329486         0.209167
 C         3.549183        -0.716142         0.910276
 O         4.537889        -0.232963         0.051571
 C         3.559413         0.982446        -0.198216
 C         2.489287         0.512635        -1.197552
 C         3.087694         0.762390         1.186809
 O         1.574901         0.892813         1.005405
 H        -0.462771        -1.051094         0.245327
 H        -0.692089         0.622155        -0.261404
 H        -0.471032        -0.611457        -1.418323
 H         1.823824        -1.996332         0.939324
 H         2.613090        -1.833252        -0.712035
 H         4.027769        -1.255455         1.693109
 H         4.160444         1.754148        -0.709775
 H         2.069834         1.295875        -1.930024
 H         2.985587        -0.333677        -1.841046
 H         3.297049         1.466486         2.036418
