19
Iteration:  3683
 C        -0.063092        -0.151657        -0.482920
 C         1.482566        -0.118607        -0.182694
 C         2.359942        -1.300901         0.241522
 C         3.543888        -0.663584         1.009885
 O         4.491466        -0.231375        -0.006554
 C         3.690186         0.915163        -0.230184
 C         2.403749         0.626603        -1.164652
 C         2.921271         0.768201         1.199366
 O         1.601663         0.771328         0.971009
 H        -0.533474        -0.439802         0.473886
 H        -0.150637         0.889019        -0.660741
 H        -0.411975        -0.744511        -1.367343
 H         1.857578        -2.055000         0.786681
 H         2.783672        -1.875877        -0.575449
 H         3.978334        -1.412056         1.712383
 H         4.128313         1.846210        -0.501064
 H         1.932548         1.426866        -1.685619
 H         2.866475         0.100594        -2.043535
 H         3.313102         1.495020         1.913452
