19
Iteration:   428charge 0 multiplicity 1
 C         0.160800        -0.332532        -0.613312
 C         1.454948        -0.025164        -0.066541
 C         2.264663        -1.360584         0.355337
 C         3.564082        -0.654989         0.934458
 O         4.433048        -0.201784        -0.114965
 C         3.600272         0.972630        -0.343150
 C         2.327197         0.779581        -1.081841
 C         3.035349         0.743248         1.153413
 O         1.616128         0.733965         1.131252
 H        -0.502686        -0.717647         0.155499
 H        -0.380753         0.618558        -0.897679
 H         0.150846        -0.984127        -1.519367
 H         1.683087        -1.900759         1.070447
 H         2.384850        -2.042197        -0.594889
 H         4.052269        -1.105975         1.765600
 H         4.252410         1.769300        -0.632855
 H         1.794348         1.645367        -1.467384
 H         2.565596         0.110683        -1.851615
 H         3.641804         1.400937         1.821313
