19
Iteration:  1289
 C         0.112722        -0.390496        -0.622111
 C         1.558269        -0.084859        -0.091441
 C         2.225671        -1.339137         0.359547
 C         3.564630        -0.601082         0.920135
 O         4.389051        -0.239254        -0.174496
 C         3.621077         1.003935        -0.301473
 C         2.364291         0.728582        -1.101854
 C         3.023325         0.818278         1.170120
 O         1.599537         0.790664         1.178643
 H        -0.374966        -0.991185         0.159326
 H        -0.303800         0.480619        -1.051181
 H         0.317030        -1.169640        -1.303087
 H         1.655790        -1.616174         1.161825
 H         2.588608        -2.174082        -0.378518
 H         4.156630        -1.344971         1.584841
 H         4.226814         1.760448        -0.606756
 H         1.720381         1.611049        -1.310054
 H         2.440669         0.340095        -2.150907
 H         3.429510         1.437472         2.001103
