19
Iteration:  4637charge 0 multiplicity 1
 C         0.010732        -0.181427        -0.408206
 C         1.552222        -0.097509        -0.281989
 C         2.283538        -1.308116         0.238918
 C         3.456867        -0.699323         0.969908
 O         4.488381        -0.248746        -0.005347
 C         3.676194         0.900534        -0.208276
 C         2.449331         0.727013        -1.166181
 C         2.959698         0.776653         1.202440
 O         1.603957         0.757685         0.960911
 H        -0.174602        -1.278769        -0.375423
 H        -0.437108         0.440520         0.308331
 H        -0.225652         0.190282        -1.427551
 H         1.618129        -1.759560         0.983407
 H         2.559085        -2.042937        -0.522242
 H         3.705461        -1.464776         1.652784
 H         4.242800         1.747962        -0.595031
 H         1.863596         1.752613        -1.280028
 H         2.764191         0.295821        -2.182449
 H         3.263902         1.333906         2.152825
