19
Iteration:  2759charge 0 multiplicity 1
 C         0.022157        -0.394178        -0.674882
 C         1.425723        -0.039851        -0.095222
 C         2.204200        -1.256585         0.483729
 C         3.544642        -0.643167         0.852324
 O         4.469617        -0.259479        -0.182597
 C         3.726586         0.961385        -0.286378
 C         2.484113         0.688795        -1.095681
 C         3.053340         0.790021         1.216176
 O         1.563842         0.823660         1.131163
 H        -0.535337        -1.189685        -0.165840
 H        -0.669802         0.476093        -0.845569
 H         0.181078        -0.636504        -1.706330
 H         1.625482        -1.598685         1.317372
 H         2.350039        -2.169469        -0.167465
 H         3.990417        -1.352178         1.583943
 H         4.437429         1.762450        -0.683778
 H         1.935803         1.731500        -1.260076
 H         2.614459         0.164018        -2.014714
 H         3.324750         1.286546         2.131202
