19
Iteration:  3735
 C         0.105250        -0.421807        -0.806367
 C         1.507052         0.001916        -0.146276
 C         2.252912        -1.299166         0.460877
 C         3.545536        -0.733480         0.969335
 O         4.295503        -0.341240        -0.284271
 C         3.625029         0.993265        -0.159240
 C         2.420621         0.768513        -1.055420
 C         3.114134         0.765525         1.290133
 O         1.620832         0.922157         1.076330
 H        -0.569309        -0.598931         0.167656
 H        -0.491884         0.306532        -1.390368
 H         0.338226        -1.386002        -1.295352
 H         1.688845        -1.441230         1.404181
 H         2.277730        -2.232816        -0.176748
 H         4.112010        -1.331654         1.760002
 H         4.152626         1.895920        -0.445384
 H         1.909897         1.695319        -1.250425
 H         2.880339         0.446133        -2.125131
 H         3.506915         1.232344         2.201759
