19
Iteration:  3357charge 0 multiplicity 1
 C        -0.004831        -0.218472        -0.543328
 C         1.515830        -0.109111        -0.188642
 C         2.300644        -1.397003         0.283672
 C         3.491013        -0.699797         1.014175
 O         4.544390        -0.168948        -0.001252
 C         3.620743         0.957446        -0.253732
 C         2.397538         0.671811        -1.175933
 C         3.021727         0.762573         1.134860
 O         1.592012         0.818362         1.015421
 H        -0.463844        -0.323712         0.527518
 H        -0.238098         0.791891        -0.862578
 H        -0.377367        -1.111630        -1.096364
 H         1.572396        -2.030157         0.815902
 H         2.517112        -2.232372        -0.441649
 H         4.106171        -1.255494         1.757835
 H         4.161895         1.876003        -0.458715
 H         1.826849         1.646480        -1.518104
 H         2.547773         0.062676        -2.012645
 H         3.374646         1.353495         1.973341
