19
Iteration:  4121charge 0 multiplicity 1
 C         0.066321        -0.112167        -0.506847
 C         1.497014        -0.122658        -0.162892
 C         2.303418        -1.347126         0.267954
 C         3.528468        -0.665641         0.903507
 O         4.477652        -0.202095        -0.034740
 C         3.595753         0.944298        -0.243986
 C         2.474474         0.655011        -1.172486
 C         2.949724         0.730043         1.207289
 O         1.539474         0.729245         1.045887
 H        -0.388270        -0.281572         0.408670
 H        -0.184931         0.907600        -0.848521
 H        -0.296996        -0.848105        -1.171405
 H         1.848141        -2.054910         0.991961
 H         2.750511        -1.909966        -0.569921
 H         3.871319        -1.302836         1.741073
 H         4.231666         1.807605        -0.594641
 H         2.009832         1.628104        -1.475542
 H         2.796928         0.008083        -1.933783
 H         3.418617         1.401742         1.928791
