19
Iteration:  4005
 C         0.127535        -0.271857        -0.617115
 C         1.530106        -0.024167        -0.174234
 C         2.228362        -1.275003         0.494002
 C         3.552257        -0.758080         0.922786
 O         4.387850        -0.307703        -0.163629
 C         3.626808         1.036483        -0.205243
 C         2.442007         0.748218        -1.136257
 C         3.005103         0.684012         1.172666
 O         1.578414         0.777840         1.016424
 H        -0.244335        -1.325620        -0.328480
 H        -0.458219         0.716967        -0.419289
 H         0.232493        -0.369610        -1.700341
 H         1.677889        -1.365487         1.441152
 H         2.319466        -2.197428        -0.096030
 H         4.213497        -1.149967         1.714576
 H         4.250212         1.969134        -0.307672
 H         1.973478         1.721251        -1.176493
 H         2.571463         0.217799        -2.109384
 H         3.172314         1.354397         2.017205
