19
Iteration:  4638
 C        -0.004877        -0.182901        -0.412257
 C         1.546453        -0.101371        -0.279606
 C         2.281459        -1.301265         0.232903
 C         3.463181        -0.700482         0.959278
 O         4.497117        -0.244029        -0.000010
 C         3.680386         0.898521        -0.212135
 C         2.447285         0.717275        -1.159114
 C         2.961303         0.783834         1.209248
 O         1.601892         0.755171         0.962257
 H        -0.160354        -1.280240        -0.358514
 H        -0.463420         0.458539         0.328742
 H        -0.224972         0.230411        -1.433124
 H         1.589499        -1.787210         0.958344
 H         2.567722        -2.048598        -0.534438
 H         3.697256        -1.483191         1.704517
 H         4.259273         1.738124        -0.621037
 H         1.872485         1.740682        -1.289399
 H         2.804624         0.306709        -2.190098
 H         3.291390         1.355062         2.142416
