19
Iteration:  2958charge 0 multiplicity 1
 C         0.016271        -0.179583        -0.347483
 C         1.457204        -0.059361        -0.183609
 C         2.227234        -1.335337         0.232403
 C         3.399819        -0.692996         0.963082
 O         4.573375        -0.107424         0.062505
 C         3.729244         0.919588        -0.288607
 C         2.496937         0.584102        -1.250334
 C         2.949757         0.729849         1.103329
 O         1.587822         0.763144         0.996518
 H        -0.516513        -0.952793         0.303844
 H        -0.477844         0.724821        -0.170120
 H        -0.351335        -0.543373        -1.314984
 H         1.623854        -1.781143         1.060322
 H         2.478833        -2.062793        -0.530703
 H         3.926247        -1.245404         1.685356
 H         4.277762         1.840303        -0.630567
 H         2.259688         1.538466        -1.807310
 H         2.859106        -0.206278        -2.033738
 H         3.342976         1.379381         1.914393
