19
Iteration:   487
 C         0.007404        -0.230067        -0.358347
 C         1.508545        -0.112571        -0.204124
 C         2.268825        -1.334598         0.208616
 C         3.457908        -0.648966         0.883707
 O         4.541584        -0.131485         0.020239
 C         3.612215         0.995513        -0.250263
 C         2.418172         0.613865        -1.249386
 C         2.954316         0.781207         1.179131
 O         1.637178         0.721933         1.041439
 H        -0.366760        -0.798284         0.550364
 H        -0.462880         0.768918        -0.438238
 H        -0.276962        -0.846066        -1.234103
 H         1.942968        -2.023602         1.118464
 H         2.591563        -1.984423        -0.597976
 H         3.951019        -1.226449         1.753739
 H         4.240668         1.847293        -0.559793
 H         1.925762         1.437499        -1.715081
 H         2.781798        -0.054564        -2.082198
 H         3.401618         1.437755         1.870903
