19
Iteration:    31
 C        -0.044292        -0.208572        -0.273345
 C         1.428581        -0.099514        -0.305892
 C         2.369306        -1.392766         0.227770
 C         3.492466        -0.642171         0.929375
 O         4.504863        -0.117382         0.026755
 C         3.686411         0.986472        -0.230047
 C         2.463162         0.629990        -1.170353
 C         2.941007         0.735306         1.133457
 O         1.614953         0.751640         0.885500
 H        -0.206828        -0.731112         0.682929
 H        -0.609374         0.750496        -0.075039
 H        -0.526600        -0.889525        -1.015845
 H         1.761028        -1.901837         1.100715
 H         2.804105        -2.036270        -0.515781
 H         3.995425        -1.170609         1.696032
 H         4.190239         1.852858        -0.399700
 H         2.055525         1.494734        -1.644311
 H         2.692504        -0.102674        -2.022768
 H         3.206564         1.259568         2.020624
