19
Iteration:   439
 C         0.011251        -0.239169        -0.516614
 C         1.548215        -0.133118        -0.103174
 C         2.306841        -1.333300         0.289989
 C         3.551005        -0.693716         0.927563
 O         4.469110        -0.185986        -0.076102
 C         3.599456         1.033684        -0.278367
 C         2.356641         0.664320        -1.129351
 C         3.068870         0.781333         1.128332
 O         1.560547         0.741260         1.076050
 H        -0.598984        -0.692296         0.258504
 H        -0.287301         0.807990        -0.790894
 H        -0.078045        -0.885442        -1.426950
 H         1.814517        -1.833393         1.090205
 H         2.671792        -2.104433        -0.499134
 H         4.085532        -1.236529         1.682309
 H         4.142851         1.900530        -0.585025
 H         1.871356         1.581482        -1.466166
 H         2.532943         0.092908        -1.997385
 H         3.380244         1.299072         2.081087
