19
Iteration:  2145charge 0 multiplicity 1
 C         0.163925        -0.551947        -0.745031
 C         1.472930        -0.019065        -0.062352
 C         2.184612        -1.315976         0.453708
 C         3.511823        -0.694250         0.858033
 O         4.275065        -0.252646        -0.193804
 C         3.635070         0.998249        -0.307427
 C         2.384867         0.820658        -1.063249
 C         3.070870         0.805803         1.207879
 O         1.743091         0.894121         1.199176
 H        -0.406371        -1.277441        -0.080796
 H        -0.391644         0.212514        -1.262733
 H         0.539098        -1.210450        -1.533396
 H         1.608129        -1.717240         1.394136
 H         2.266962        -2.173672        -0.155937
 H         4.097465        -1.092168         1.719278
 H         4.234901         1.773307        -0.658791
 H         1.874237         1.766021        -1.325162
 H         2.486565         0.262168        -2.112447
 H         3.624781         1.454245         2.000073
