19
Iteration:  1272
 C         0.185019        -0.521595        -0.723975
 C         1.477892         0.009125        -0.022542
 C         2.279533        -1.270792         0.502607
 C         3.528953        -0.728506         0.929869
 O         4.388125        -0.248972        -0.275527
 C         3.568111         0.996466        -0.252432
 C         2.310550         0.810675        -1.035082
 C         3.076666         0.763821         1.181537
 O         1.633333         0.829578         1.090973
 H        -0.511126        -1.014947        -0.010870
 H        -0.431199         0.379029        -1.122895
 H         0.564839        -1.077825        -1.647773
 H         1.701251        -1.796815         1.381977
 H         2.243299        -1.929147        -0.317009
 H         4.193458        -1.101234         1.664701
 H         4.258173         1.926542        -0.560763
 H         1.753000         1.747239        -1.276031
 H         2.572828         0.247928        -1.933323
 H         3.505870         1.395333         1.979918
