19
Iteration:  1709charge 0 multiplicity 1
 C         0.161238        -0.518268        -0.738295
 C         1.441603        -0.006617        -0.078501
 C         2.276740        -1.321784         0.534956
 C         3.596694        -0.658909         0.878064
 O         4.345803        -0.310142        -0.280068
 C         3.642111         0.966856        -0.238487
 C         2.351725         0.833561        -1.056905
 C         3.066458         0.791784         1.201403
 O         1.571611         0.893866         1.158479
 H        -0.396321        -1.196960        -0.109919
 H        -0.516862         0.167285        -1.262376
 H         0.512535        -1.028914        -1.647110
 H         1.726227        -1.771372         1.521889
 H         2.341433        -1.996543        -0.239547
 H         4.228753        -1.157257         1.586797
 H         4.347032         1.889323        -0.608729
 H         1.889044         1.796936        -1.190917
 H         2.560423         0.255918        -1.954945
 H         3.500757         1.441371         1.989787
