19
Iteration:  4602
 C         0.087039        -0.299562        -0.706389
 C         1.504169        -0.068883        -0.149012
 C         2.228404        -1.294530         0.388772
 C         3.463919        -0.703864         0.968506
 O         4.330619        -0.323505        -0.222833
 C         3.686680         0.965433        -0.193492
 C         2.469692         0.757202        -1.065167
 C         3.058556         0.814514         1.255889
 O         1.646021         0.818681         1.098023
 H        -0.334029        -1.301585        -0.424065
 H        -0.773582         0.261234        -0.410386
 H         0.142179        -0.155715        -1.777168
 H         1.739451        -1.787929         1.220294
 H         2.498290        -2.111357        -0.288080
 H         4.112929        -1.319638         1.519712
 H         4.354283         1.797640        -0.450186
 H         1.945593         1.793389        -1.363117
 H         2.717404         0.280185        -2.029437
 H         3.304491         1.351869         2.175755
