19
Iteration:  4954charge 0 multiplicity 1
 C         0.058011        -0.183620        -0.516460
 C         1.504477        -0.120752        -0.210117
 C         2.225298        -1.313822         0.372658
 C         3.424661        -0.641688         1.029247
 O         4.466365        -0.258485        -0.009214
 C         3.689184         0.872795        -0.267768
 C         2.502540         0.599397        -1.193457
 C         3.007036         0.800877         1.130246
 O         1.592472         0.861683         0.966567
 H        -0.625682        -0.191420         0.306792
 H        -0.356937         0.719920        -1.101352
 H        -0.196475        -1.189684        -0.897476
 H         1.635843        -1.750907         1.185130
 H         2.652845        -2.130742        -0.241510
 H         3.860799        -1.272375         1.783489
 H         4.083202         1.884179        -0.643072
 H         2.188761         1.519141        -1.475555
 H         2.752930        -0.063090        -2.054462
 H         3.446703         1.440709         1.851240
