19
Iteration:  2024charge 0 multiplicity 1
 C         0.156316        -0.368400        -0.623506
 C         1.572109        -0.048571        -0.112568
 C         2.316714        -1.309340         0.475697
 C         3.543247        -0.670001         0.962487
 O         4.340739        -0.294682        -0.189173
 C         3.609336         1.014394        -0.310920
 C         2.368539         0.815995        -1.103346
 C         3.012998         0.808881         1.163359
 O         1.600624         0.755169         1.065421
 H        -0.404089        -1.017352         0.105243
 H        -0.550092         0.426847        -0.797709
 H         0.171568        -1.076960        -1.431490
 H         1.599281        -1.757200         1.231327
 H         2.610570        -2.102852        -0.262708
 H         4.117702        -1.242731         1.703379
 H         4.259613         1.796017        -0.492615
 H         1.715092         1.709480        -1.223170
 H         2.440019         0.320961        -2.136270
 H         3.344499         1.436869         2.031366
