19
Iteration:  1995
 C         0.156957        -0.489934        -0.736964
 C         1.553916        -0.104210        -0.074964
 C         2.274048        -1.294609         0.517725
 C         3.547149        -0.635211         0.952593
 O         4.251751        -0.361777        -0.302280
 C         3.609921         1.035577        -0.219811
 C         2.383879         0.860363        -1.033407
 C         3.106731         0.824133         1.171079
 O         1.621134         0.837281         1.084754
 H        -0.469625        -1.138145        -0.020666
 H        -0.526021         0.367498        -0.991317
 H         0.480179        -1.180621        -1.560099
 H         1.561213        -1.681337         1.314265
 H         2.510369        -2.009221        -0.200267
 H         4.152656        -1.167167         1.720485
 H         4.295176         1.967113        -0.459823
 H         1.678900         1.665046        -1.002224
 H         2.600467         0.527928        -2.074842
 H         3.472200         1.461852         2.000239
