19
Iteration:  3100
 C        -0.090364        -0.170352        -0.414964
 C         1.428941        -0.080209        -0.180868
 C         2.336721        -1.313374         0.229072
 C         3.543060        -0.696665         0.951540
 O         4.568429        -0.154673         0.071465
 C         3.640815         0.907460        -0.233011
 C         2.464365         0.533476        -1.268341
 C         3.022900         0.774177         1.154831
 O         1.566524         0.821332         0.994504
 H        -0.695275        -0.853927         0.206970
 H        -0.303136         0.849924        -0.190847
 H        -0.445515        -0.386308        -1.485372
 H         1.776104        -1.952515         0.972296
 H         2.699459        -1.950761        -0.567761
 H         3.823904        -1.448250         1.667078
 H         4.079645         1.917519        -0.504915
 H         2.071919         1.344341        -1.805262
 H         2.819035        -0.276360        -2.016072
 H         3.179418         1.413910         1.977159
