19
Iteration:  3859
 C         0.120020        -0.274228        -0.670589
 C         1.499495        -0.056022        -0.164630
 C         2.251334        -1.332055         0.425328
 C         3.539854        -0.671277         0.945094
 O         4.404132        -0.314349        -0.140820
 C         3.713981         0.886186        -0.241093
 C         2.380763         0.725607        -1.045706
 C         3.017249         0.821820         1.170658
 O         1.557646         0.817962         1.042178
 H        -0.451821        -0.719590         0.159751
 H        -0.266839         0.787541        -0.840947
 H         0.145270        -0.938993        -1.625524
 H         1.700784        -1.751366         1.241998
 H         2.394862        -1.999803        -0.416749
 H         3.956069        -1.093859         1.874754
 H         4.368371         1.697822        -0.618488
 H         1.885074         1.720661        -1.044187
 H         2.552162         0.343903        -2.022678
 H         3.370181         1.465323         2.003797
