19
Iteration:   908
 C        -0.038371        -0.189374        -0.321499
 C         1.462315        -0.139712        -0.200474
 C         2.353778        -1.398752         0.257609
 C         3.563042        -0.615665         0.916847
 O         4.545561        -0.079658        -0.016996
 C         3.595010         1.011690        -0.273808
 C         2.507546         0.571482        -1.259643
 C         2.923312         0.741946         1.118200
 O         1.548554         0.720018         1.028334
 H        -0.499694        -0.601581         0.625919
 H        -0.325181         0.913120        -0.401433
 H        -0.474249        -0.774518        -1.186113
 H         1.782298        -1.966587         0.988730
 H         2.554948        -2.131634        -0.632145
 H         4.094647        -1.272519         1.512982
 H         4.148309         2.032696        -0.118057
 H         2.033772         1.428768        -1.727985
 H         2.843561        -0.207270        -1.968265
 H         3.254745         1.331587         2.039076
