19
Iteration:  3720charge 0 multiplicity 1
 C         0.113631        -0.420473        -0.677900
 C         1.505469        -0.097101        -0.187672
 C         2.152913        -1.250864         0.445642
 C         3.499899        -0.706126         0.922342
 O         4.365819        -0.285394        -0.111623
 C         3.674780         0.988297        -0.232859
 C         2.390446         0.828085        -1.081686
 C         3.058381         0.758538         1.181198
 O         1.702572         0.831767         1.091812
 H        -0.711609        -0.563454        -0.029122
 H        -0.171623         0.414610        -1.373260
 H         0.135907        -1.281117        -1.322699
 H         1.471968        -1.690440         1.245663
 H         2.415394        -1.965910        -0.360292
 H         4.083209        -1.359162         1.535521
 H         4.477542         1.742929        -0.451328
 H         1.803982         1.844566        -1.214334
 H         2.552490         0.267281        -1.950274
 H         3.420023         1.419717         1.976344
