19
Iteration:  3232charge 0 multiplicity 1
 C        -0.025762        -0.104614        -0.381368
 C         1.548271        -0.173728        -0.202110
 C         2.339646        -1.445486         0.204832
 C         3.493131        -0.608093         0.961886
 O         4.514325        -0.167479        -0.007186
 C         3.616530         0.977545        -0.239957
 C         2.497862         0.551921        -1.168395
 C         2.952499         0.763988         1.177617
 O         1.542831         0.806657         0.974591
 H        -0.379305        -0.196694         0.597978
 H        -0.419423         0.870886        -0.770893
 H        -0.446102        -0.782957        -1.170961
 H         1.756130        -2.299903         0.719241
 H         2.809560        -1.967432        -0.653241
 H         3.809264        -1.194133         1.837995
 H         4.019825         1.966609        -0.569349
 H         2.086925         1.387367        -1.543878
 H         2.798320        -0.138987        -2.064921
 H         3.302745         1.365379         2.074491
