19
Iteration:   564charge 0 multiplicity 1
 C         0.160202        -0.389067        -0.623141
 C         1.528529        -0.082532        -0.082355
 C         2.266186        -1.341742         0.481814
 C         3.571604        -0.636734         0.917882
 O         4.313462        -0.275016        -0.252200
 C         3.589714         1.009350        -0.238133
 C         2.379178         0.780851        -1.138174
 C         3.051512         0.812089         1.200537
 O         1.571983         0.778721         1.062577
 H        -0.561147        -0.759778         0.194914
 H        -0.178476         0.603467        -0.939178
 H         0.237368        -1.159278        -1.424411
 H         1.591200        -1.586593         1.441782
 H         2.489611        -2.197817        -0.080099
 H         4.412566        -1.061904         1.583403
 H         4.345648         1.820442        -0.404480
 H         1.928337         1.680882        -1.409424
 H         2.804070         0.270584        -2.026623
 H         3.507883         1.278348         2.035975
