19
Iteration:  4635
 C         0.042485        -0.183191        -0.408504
 C         1.558780        -0.088608        -0.282377
 C         2.285566        -1.319973         0.248970
 C         3.445998        -0.696612         0.985024
 O         4.472126        -0.258265        -0.013798
 C         3.668268         0.907836        -0.202968
 C         2.451787         0.746329        -1.180446
 C         2.959443         0.763253         1.191281
 O         1.606940         0.762797         0.959182
 H        -0.218918        -1.258996        -0.398176
 H        -0.415621         0.426649         0.308641
 H        -0.237431         0.116512        -1.413440
 H         1.664305        -1.723056         1.031129
 H         2.549080        -2.039020        -0.504083
 H         3.762003        -1.451540         1.610359
 H         4.227439         1.775522        -0.538312
 H         1.885231         1.732288        -1.267738
 H         2.682227         0.288324        -2.141172
 H         3.209224         1.284777         2.136956
