19
Iteration:  1880charge 0 multiplicity 1
 C         0.053986        -0.447090        -0.638175
 C         1.477402        -0.099083        -0.082508
 C         2.274870        -1.309795         0.456432
 C         3.534084        -0.686505         0.916800
 O         4.419443        -0.221303        -0.181736
 C         3.632775         0.986280        -0.247995
 C         2.371880         0.736389        -1.103994
 C         3.039219         0.796976         1.171279
 O         1.627298         0.882313         1.086527
 H        -0.606568        -1.014124         0.009241
 H        -0.499674         0.467219        -0.948259
 H         0.205081        -1.043793        -1.566204
 H         1.831359        -1.895140         1.238007
 H         2.504266        -1.959612        -0.497778
 H         4.188235        -1.190004         1.640542
 H         4.214088         1.831941        -0.352475
 H         1.795320         1.666515        -1.460863
 H         2.790920         0.196198        -1.960360
 H         3.532581         1.418027         1.926507
