19
Iteration:  2793charge 0 multiplicity 1
 C         0.069229        -0.134922        -0.389319
 C         1.527829        -0.162724        -0.185647
 C         2.322462        -1.381427         0.251550
 C         3.490797        -0.683456         0.962001
 O         4.453450        -0.167899         0.052465
 C         3.558261         0.990298        -0.307440
 C         2.443187         0.535879        -1.211854
 C         2.967143         0.770754         1.190060
 O         1.598481         0.803302         0.962391
 H        -0.606057        -0.762447         0.297838
 H        -0.163598         0.911831        -0.135853
 H        -0.201596        -0.432983        -1.368046
 H         1.755407        -2.078046         0.828134
 H         2.834633        -1.868627        -0.624712
 H         3.990412        -1.310767         1.705937
 H         4.174930         1.830305        -0.763517
 H         1.912983         1.558116        -1.516143
 H         2.776768         0.109660        -2.172074
 H         3.462586         1.436305         1.965903
