19
Iteration:  3837charge 0 multiplicity 1
 C        -0.012570        -0.186787        -0.457763
 C         1.502285        -0.070485        -0.214641
 C         2.243901        -1.345249         0.344482
 C         3.523975        -0.733718         1.000669
 O         4.452317        -0.253751        -0.018188
 C         3.646249         1.035976        -0.250027
 C         2.519538         0.695134        -1.293897
 C         3.008629         0.723790         1.202376
 O         1.597925         0.771074         0.969289
 H        -0.398405        -0.939338         0.276219
 H        -0.556131         0.815962        -0.349666
 H        -0.211829        -0.634347        -1.507707
 H         1.623782        -1.788105         1.106876
 H         2.602816        -2.031660        -0.412886
 H         3.839371        -1.293883         1.883327
 H         4.251568         1.953117        -0.270594
 H         1.968217         1.539172        -1.706909
 H         2.889241         0.008233        -2.038646
 H         3.321927         1.442861         1.989136
