19
Iteration:  2822charge 0 multiplicity 1
 C        -0.133629        -0.163585        -0.389014
 C         1.465956        -0.075191        -0.220716
 C         2.363585        -1.356152         0.277348
 C         3.539621        -0.675135         0.993320
 O         4.576988        -0.285534         0.023330
 C         3.625075         1.021202        -0.273729
 C         2.447174         0.680757        -1.170911
 C         2.978869         0.781482         1.114795
 O         1.548332         0.689351         0.943725
 H        -0.458045        -0.374026         0.574334
 H        -0.436074         0.896185        -0.673299
 H        -0.442299        -0.939024        -1.118260
 H         1.688010        -1.951083         0.945436
 H         2.899406        -1.944918        -0.515082
 H         4.075630        -1.148085         1.880189
 H         4.226851         1.896376        -0.612285
 H         2.083827         1.661140        -1.550877
 H         2.868013         0.156182        -1.981845
 H         3.365576         1.492352         1.768874
