19
Iteration:  3138charge 0 multiplicity 1
 C         0.126083        -0.337917        -0.643475
 C         1.534679        -0.099075        -0.138664
 C         2.219246        -1.297649         0.444371
 C         3.466563        -0.708947         0.957461
 O         4.348553        -0.282604        -0.119386
 C         3.659669         1.027054        -0.289593
 C         2.426184         0.728229        -1.159705
 C         3.029444         0.815073         1.192131
 O         1.623780         0.788828         1.079849
 H        -0.512711        -1.018095        -0.044239
 H        -0.329272         0.704880        -0.553281
 H         0.178838        -0.512107        -1.698029
 H         1.688151        -1.680372         1.302769
 H         2.528205        -2.189980        -0.147052
 H         4.098288        -1.328774         1.655254
 H         4.417869         1.776414        -0.397227
 H         1.892553         1.723685        -1.477616
 H         2.672875         0.162095        -2.069543
 H         3.576621         1.513851         1.876216
