19
Iteration:  1714
 C         0.122365        -0.520308        -0.739190
 C         1.425604        -0.008827        -0.083910
 C         2.295204        -1.305808         0.545336
 C         3.607560        -0.692987         0.898725
 O         4.349347        -0.331202        -0.288618
 C         3.671878         1.015036        -0.270746
 C         2.354152         0.821157        -1.057551
 C         3.041017         0.839260         1.221137
 O         1.585688         0.872441         1.161625
 H        -0.477928        -1.209929        -0.109366
 H        -0.505883         0.248383        -1.224245
 H         0.570451        -1.035804        -1.609180
 H         1.881006        -1.750957         1.361005
 H         2.282509        -2.121082        -0.286739
 H         4.194800        -1.226005         1.692623
 H         4.217818         1.827215        -0.576779
 H         1.963573         1.877106        -1.267370
 H         2.638321         0.315066        -2.020085
 H         3.372522         1.424488         2.073011
