19
Iteration:  1565
 C         0.215291        -0.468220        -0.671110
 C         1.559703        -0.090978        -0.075620
 C         2.223166        -1.338253         0.509238
 C         3.575565        -0.646729         0.973412
 O         4.284851        -0.310491        -0.263818
 C         3.606638         1.064827        -0.238218
 C         2.287124         0.864037        -1.097177
 C         3.077301         0.838877         1.197011
 O         1.639754         0.768440         1.043273
 H        -0.356490        -1.092086        -0.049171
 H        -0.218257         0.476475        -1.036105
 H         0.486470        -1.076638        -1.545463
 H         1.508023        -1.862674         1.298100
 H         2.470944        -2.070143        -0.188226
 H         4.185619        -1.105737         1.811373
 H         4.328634         1.891081        -0.639902
 H         1.621371         1.758772        -0.975262
 H         2.348682         0.392441        -2.081988
 H         3.605942         1.453005         1.926707
