19
Iteration:  2256charge 0 multiplicity 1
 C         0.011237        -0.303180        -0.489383
 C         1.494765        -0.125353        -0.130571
 C         2.254565        -1.355922         0.299342
 C         3.498213        -0.631764         1.002221
 O         4.475291        -0.195168        -0.124015
 C         3.610454         0.974347        -0.282268
 C         2.435537         0.686442        -1.111761
 C         3.061916         0.792799         1.161502
 O         1.624714         0.793300         0.981473
 H        -0.527561        -0.795612         0.319624
 H        -0.541448         0.652288        -0.717037
 H         0.020067        -1.101443        -1.288468
 H         1.613228        -1.796140         1.154790
 H         2.587885        -2.039935        -0.418795
 H         4.093503        -1.042389         1.844291
 H         4.168744         1.897585        -0.494610
 H         1.802934         1.620176        -1.352509
 H         2.715409         0.018368        -1.987648
 H         3.386250         1.345094         1.991224
