19
Iteration:  2636
 C         0.013690        -0.179273        -0.457499
 C         1.523078        -0.138566        -0.133331
 C         2.323937        -1.397841         0.332280
 C         3.527752        -0.630268         0.990470
 O         4.375293        -0.257647        -0.090733
 C         3.707182         1.001587        -0.314984
 C         2.461434         0.691545        -1.155881
 C         2.961903         0.821519         1.144447
 O         1.575891         0.726877         1.003081
 H        -0.440743        -0.747686         0.297634
 H        -0.284195         0.871631        -0.456815
 H        -0.320835        -0.625499        -1.424943
 H         1.656331        -2.075713         0.920061
 H         2.751635        -1.841960        -0.526419
 H         4.188358        -1.043841         1.854609
 H         4.283911         1.906199        -0.524021
 H         1.840022         1.546457        -1.538768
 H         2.798519        -0.046323        -1.969820
 H         3.393610         1.295847         2.067366
