19
Iteration:  2108
 C         0.084919        -0.278999        -0.472456
 C         1.544150        -0.106698        -0.122413
 C         2.326396        -1.394386         0.385549
 C         3.564089        -0.632614         0.931193
 O         4.406645        -0.224973        -0.114133
 C         3.594943         0.961547        -0.282510
 C         2.397760         0.743387        -1.145079
 C         2.957854         0.824972         1.116014
 O         1.592651         0.746348         1.026332
 H        -0.496598        -0.701985         0.325765
 H        -0.464260         0.637218        -0.803965
 H         0.068627        -0.923668        -1.401366
 H         1.731931        -1.825178         1.119577
 H         2.571848        -2.136869        -0.463714
 H         4.150679        -1.116216         1.713445
 H         4.301749         1.809476        -0.529974
 H         1.927911         1.705730        -1.313133
 H         2.611298         0.260752        -2.038427
 H         3.281997         1.315742         2.035904
