19
Iteration:   204charge 0 multiplicity 1
 C         0.103070        -0.183321        -0.415202
 C         1.556207        -0.155181        -0.130494
 C         2.324568        -1.449944         0.350079
 C         3.543222        -0.721933         0.919616
 O         4.437145        -0.169054        -0.091089
 C         3.618655         1.048121        -0.225357
 C         2.372637         0.682085        -1.186637
 C         2.978582         0.804786         1.144104
 O         1.550024         0.766318         0.962167
 H        -0.419505        -0.719560         0.347099
 H        -0.328996         0.786674        -0.674050
 H        -0.236454        -0.757434        -1.287556
 H         1.779871        -1.952559         1.153042
 H         2.517086        -2.070828        -0.450506
 H         4.134255        -1.281670         1.739572
 H         4.267672         2.048178        -0.451124
 H         1.838287         1.542606        -1.646744
 H         2.852729         0.091435        -2.089181
 H         3.153021         1.236926         2.110398
