19
Iteration:  4105charge 0 multiplicity 1
 C         0.015617        -0.033647        -0.361323
 C         1.614640        -0.114222        -0.244727
 C         2.332333        -1.418466         0.219289
 C         3.526604        -0.770664         1.007607
 O         4.459223        -0.130320        -0.023842
 C         3.601573         1.035642        -0.186887
 C         2.460310         0.555822        -1.268670
 C         2.899091         0.729443         1.173369
 O         1.575991         0.739107         0.975744
 H        -0.527231         0.011847         0.693394
 H        -0.157573         0.888259        -0.928078
 H        -0.431369        -0.913382        -0.963934
 H         1.640697        -1.905592         0.914646
 H         2.517808        -2.107912        -0.619744
 H         4.191340        -1.309154         1.671232
 H         4.087937         1.979561        -0.171551
 H         1.979780         1.413023        -1.719100
 H         2.950345         0.053991        -2.185554
 H         3.100964         1.115270         2.176224
