19
Iteration:  3910charge 0 multiplicity 1
 C         0.120338        -0.344819        -0.636056
 C         1.507699        -0.018370        -0.158465
 C         2.202306        -1.301549         0.442145
 C         3.517189        -0.699931         0.939505
 O         4.421201        -0.340742        -0.222542
 C         3.680454         1.022152        -0.213539
 C         2.474509         0.751271        -1.082872
 C         2.992719         0.771909         1.211588
 O         1.547092         0.835977         1.062658
 H        -0.509696        -0.416620         0.275267
 H        -0.062130         0.441294        -1.244217
 H         0.079257        -1.297020        -1.120119
 H         1.474671        -1.594829         1.247116
 H         2.435607        -1.971115        -0.411556
 H         4.000014        -1.501905         1.539026
 H         4.197923         1.925169        -0.434998
 H         1.950215         1.669880        -1.260075
 H         2.936113         0.174835        -2.023506
 H         3.376207         1.254118         2.124988
