19
Iteration:  2513
 C        -0.110289        -0.154396        -0.347199
 C         1.452823        -0.056869        -0.163020
 C         2.354120        -1.337343         0.227816
 C         3.491142        -0.697042         0.938399
 O         4.623596        -0.120638         0.061876
 C         3.634740         0.973420        -0.271934
 C         2.391551         0.532686        -1.264680
 C         2.996766         0.782488         1.118007
 O         1.608990         0.743543         0.970394
 H        -0.681815        -0.446010         0.603416
 H        -0.462377         0.818841        -0.513130
 H        -0.338545        -0.878370        -1.070763
 H         1.873079        -1.991691         0.953558
 H         2.580954        -1.933476        -0.675010
 H         3.842424        -1.354751         1.761061
 H         4.112791         1.854298        -0.549124
 H         2.157721         1.418820        -1.887044
 H         2.750107        -0.388074        -1.906808
 H         3.237109         1.198736         2.082408
