19
Iteration:   768
 C         0.022776        -0.191520        -0.359047
 C         1.493234        -0.098078        -0.115175
 C         2.386259        -1.396984         0.141364
 C         3.530915        -0.670296         0.946655
 O         4.581663        -0.090835         0.028346
 C         3.636463         0.965125        -0.294519
 C         2.303466         0.512826        -1.184773
 C         2.954701         0.788331         1.129371
 O         1.541168         0.803932         0.998891
 H        -0.490883        -0.723080         0.446790
 H        -0.360680         0.791555        -0.401295
 H        -0.219416        -0.751446        -1.245072
 H         1.884826        -2.135296         0.742121
 H         2.696227        -2.044065        -0.757952
 H         3.967420        -1.214264         1.813170
 H         4.064962         1.933587        -0.590727
 H         1.746357         1.452077        -1.410167
 H         2.719433        -0.117277        -2.032957
 H         3.411654         1.266161         1.998938
