19
Iteration:  4618
 C         0.088633        -0.282007        -0.576839
 C         1.543368        -0.010709        -0.152374
 C         2.251061        -1.380568         0.383155
 C         3.539146        -0.775517         0.977930
 O         4.335741        -0.317518        -0.103480
 C         3.652396         1.026626        -0.215317
 C         2.465738         0.839182        -1.163066
 C         3.001406         0.703576         1.169544
 O         1.589385         0.806056         0.985392
 H        -0.141651        -1.298695        -0.229265
 H        -0.441772         0.463306         0.119919
 H        -0.179287         0.101861        -1.605412
 H         1.455920        -1.911764         0.981416
 H         2.541426        -2.114721        -0.424688
 H         4.089546        -1.014571         1.978763
 H         4.386435         1.861754        -0.204092
 H         2.008007         1.767934        -1.503465
 H         2.845208         0.304033        -2.093730
 H         3.445052         1.346898         1.953656
