19
Iteration:   780
 C         0.011082        -0.232642        -0.428323
 C         1.478575        -0.156882        -0.170768
 C         2.368991        -1.407215         0.267768
 C         3.527070        -0.634436         0.954858
 O         4.534886        -0.129724        -0.029790
 C         3.542160         0.985040        -0.291032
 C         2.377487         0.657896        -1.190035
 C         2.978469         0.745440         1.150960
 O         1.631444         0.768653         1.059641
 H        -0.512841        -0.770695         0.400339
 H        -0.395838         0.747804        -0.503914
 H        -0.146050        -0.680384        -1.407314
 H         1.803674        -2.053580         0.974518
 H         2.795547        -1.829335        -0.664408
 H         3.981069        -1.110987         1.921928
 H         4.178056         1.760365        -0.613844
 H         1.908527         1.552910        -1.724019
 H         2.379071        -0.065126        -2.136619
 H         3.262268         1.514725         1.922556
