19
Iteration:  3830
 C        -0.029789        -0.192946        -0.454616
 C         1.509547        -0.042908        -0.282802
 C         2.225326        -1.369619         0.324695
 C         3.482590        -0.701712         0.991542
 O         4.467707        -0.198358         0.015343
 C         3.656868         1.021665        -0.179209
 C         2.512085         0.620258        -1.297860
 C         3.025015         0.721540         1.164995
 O         1.612425         0.774399         0.990220
 H        -0.295169        -0.755224         0.417461
 H        -0.491341         0.728606        -0.010225
 H        -0.285091        -0.531401        -1.440769
 H         1.617250        -2.069325         0.961924
 H         2.376409        -1.992534        -0.585566
 H         3.939347        -1.176659         1.875603
 H         4.313151         1.922148        -0.392392
 H         1.942765         1.428898        -1.886601
 H         2.945291        -0.007034        -2.051553
 H         3.393642         1.335850         1.984829
