19
Iteration:  4581charge 0 multiplicity 1
 C         0.178491        -0.267280        -0.779988
 C         1.492284        -0.024610        -0.071881
 C         2.179541        -1.302689         0.435471
 C         3.549388        -0.722191         0.944546
 O         4.459745        -0.295636        -0.137690
 C         3.606236         0.952243        -0.280241
 C         2.345703         0.792905        -1.037638
 C         3.080413         0.712735         1.136462
 O         1.598014         0.806401         1.168705
 H        -0.472801        -1.107420        -0.396278
 H        -0.552214         0.524693        -0.795074
 H         0.457804        -0.487791        -1.808202
 H         1.593558        -1.726607         1.263501
 H         2.135893        -1.982031        -0.405952
 H         4.063901        -1.305330         1.665813
 H         4.235205         1.737202        -0.690017
 H         1.728413         1.773109        -1.332348
 H         2.513157         0.234393        -1.980525
 H         3.507732         1.248340         1.994641
