19
Iteration:  4885
 C         0.120441        -0.266419        -0.603289
 C         1.581799        -0.054690        -0.220782
 C         2.247136        -1.302734         0.477393
 C         3.459334        -0.630300         1.056392
 O         4.349104        -0.376635        -0.093379
 C         3.657317         0.969674        -0.320506
 C         2.413135         0.753445        -1.182159
 C         3.048622         0.765573         1.243097
 O         1.570466         0.815076         0.925666
 H        -0.525789         0.440517         0.027447
 H         0.011884         0.118189        -1.560146
 H        -0.253605        -1.289731        -0.452295
 H         1.620375        -1.558770         1.335825
 H         2.658357        -2.196925        -0.015409
 H         4.012577        -1.265471         1.735815
 H         4.562643         1.520535        -0.380599
 H         1.911514         1.608802        -1.509783
 H         2.826394         0.121623        -1.872375
 H         3.439126         1.444432         2.129271
