19
Iteration:  4672charge 0 multiplicity 1
 C        -0.002097        -0.106289        -0.534205
 C         1.449957        -0.031764        -0.092809
 C         2.333647        -1.335436         0.237613
 C         3.471264        -0.771046         0.916253
 O         4.544534        -0.179451         0.012248
 C         3.628625         0.925734        -0.256242
 C         2.401856         0.610421        -1.212791
 C         2.974897         0.698329         1.196951
 O         1.605409         0.815426         1.070281
 H        -0.138494        -1.163725        -0.823418
 H        -0.864028         0.085551         0.165651
 H        -0.020416         0.509557        -1.473077
 H         1.755946        -2.026942         0.908001
 H         2.651973        -1.965583        -0.624690
 H         3.849573        -1.253312         1.869906
 H         4.216571         1.858759        -0.364026
 H         2.016459         1.523921        -1.791272
 H         2.820570        -0.101506        -2.030112
 H         3.531517         1.255630         1.956721
