19
Iteration:   877charge 0 multiplicity 1
 C         0.033073        -0.268751        -0.445887
 C         1.495083        -0.120216        -0.138693
 C         2.318721        -1.417554         0.287370
 C         3.572658        -0.638121         0.968046
 O         4.487048        -0.164242        -0.074433
 C         3.631733         0.989056        -0.306295
 C         2.354985         0.690223        -1.148800
 C         2.963610         0.813402         1.161855
 O         1.600873         0.741047         1.007875
 H        -0.590684        -0.556477         0.439687
 H        -0.349469         0.708611        -0.701886
 H        -0.092124        -1.048228        -1.202600
 H         1.755904        -2.002412         1.066532
 H         2.642351        -2.074982        -0.593717
 H         4.168848        -1.295718         1.601332
 H         4.204408         2.004866        -0.307861
 H         1.940587         1.620139        -1.529769
 H         2.508402         0.175831        -2.135888
 H         3.284751         1.437758         2.060754
