19
Iteration:  3411
 C         0.008657        -0.221269        -0.517160
 C         1.515420        -0.121225        -0.200298
 C         2.263102        -1.328711         0.362630
 C         3.527406        -0.660095         0.954748
 O         4.503362        -0.254657        -0.020800
 C         3.601642         0.981986        -0.190799
 C         2.397163         0.699259        -1.188198
 C         3.018712         0.779822         1.128101
 O         1.636314         0.764753         0.981688
 H        -0.555164        -0.560517         0.428228
 H        -0.335869         0.724543        -0.923606
 H        -0.054455        -1.050100        -1.256581
 H         1.552980        -1.850969         1.104193
 H         2.474842        -2.056429        -0.504848
 H         4.070411        -1.268202         1.718240
 H         4.151120         1.850122        -0.537456
 H         1.841633         1.686847        -1.391710
 H         2.714603         0.211549        -2.049824
 H         3.241303         1.367566         2.014753
