19
Iteration:  1789
 C        -0.070206        -0.227005        -0.379581
 C         1.461320        -0.047458        -0.196123
 C         2.341042        -1.400739         0.217545
 C         3.523298        -0.632703         0.935318
 O         4.635026        -0.082063         0.046838
 C         3.576079         0.999852        -0.320674
 C         2.480459         0.553313        -1.223364
 C         2.973074         0.740215         1.113843
 O         1.570476         0.756129         1.088584
 H        -0.487395        -0.659529         0.575389
 H        -0.698838         0.653064        -0.529312
 H        -0.338117        -0.975326        -1.131280
 H         1.656361        -2.062207         0.836422
 H         2.501451        -2.081714        -0.744808
 H         3.880741        -1.264088         1.762468
 H         4.059197         2.011341        -0.632696
 H         1.924429         1.403592        -1.798716
 H         2.748918        -0.193868        -2.031000
 H         3.370263         1.339776         1.932255
