19
Iteration:  3732charge 0 multiplicity 1
 C         0.086403        -0.431237        -0.798033
 C         1.505870        -0.025728        -0.155104
 C         2.237832        -1.265401         0.444620
 C         3.562569        -0.736140         0.952814
 O         4.294413        -0.338822        -0.246897
 C         3.614787         0.993868        -0.156248
 C         2.423104         0.757932        -1.061216
 C         3.132845         0.782202         1.276648
 O         1.643668         0.914274         1.079746
 H        -0.477880        -0.622322         0.111463
 H        -0.433998         0.320072        -1.461916
 H         0.243756        -1.365559        -1.278794
 H         1.619848        -1.528976         1.388677
 H         2.243984        -2.212039        -0.138692
 H         4.055418        -1.327687         1.718402
 H         4.195631         1.913240        -0.454825
 H         1.853603         1.772419        -1.259882
 H         2.782306         0.509736        -2.053053
 H         3.462450         1.204793         2.221897
