19
Iteration:  3994charge 0 multiplicity 1
 C         0.077681        -0.242587        -0.633474
 C         1.508992        -0.104661        -0.174200
 C         2.218834        -1.328750         0.380761
 C         3.541229        -0.674520         0.994996
 O         4.460777        -0.222358        -0.103819
 C         3.621796         0.942614        -0.210187
 C         2.380019         0.711714        -1.167361
 C         3.049150         0.723785         1.200671
 O         1.637298         0.802508         1.021681
 H        -0.575486        -1.047948        -0.140880
 H        -0.555482         0.651247        -0.210803
 H        -0.050408        -0.196383        -1.715187
 H         1.606777        -1.701194         1.229725
 H         2.290383        -2.202289        -0.286952
 H         4.001980        -1.352020         1.741907
 H         4.145053         1.928598        -0.265872
 H         1.857232         1.606106        -1.533114
 H         2.763791         0.205847        -2.080998
 H         3.496241         1.267935         2.043893
