19
Iteration:  3287charge 0 multiplicity 1
 C         0.067980        -0.432059        -0.696919
 C         1.534031        -0.008480        -0.063596
 C         2.166688        -1.282184         0.432368
 C         3.525156        -0.717418         0.923317
 O         4.414201        -0.268330        -0.192351
 C         3.702323         1.011620        -0.182624
 C         2.383389         0.703035        -1.054632
 C         3.073106         0.819309         1.164218
 O         1.615020         0.851309         1.050298
 H        -0.407952        -1.272635        -0.252109
 H        -0.579833         0.477560        -0.611236
 H         0.227708        -0.706437        -1.744284
 H         1.582642        -1.788218         1.270678
 H         2.225473        -2.026808        -0.394155
 H         3.974843        -1.325309         1.727429
 H         4.236570         1.915396        -0.519139
 H         2.010738         1.572095        -1.407782
 H         2.725631         0.022031        -1.914646
 H         3.422172         1.458145         2.017888
