19
Iteration:  3710charge 0 multiplicity 1
 C         0.125890        -0.329141        -0.621180
 C         1.500811        -0.016317        -0.099432
 C         2.204608        -1.361878         0.359058
 C         3.437157        -0.701157         0.991947
 O         4.460807        -0.255021        -0.081011
 C         3.716630         0.948648        -0.316996
 C         2.386576         0.799480        -1.121737
 C         3.024033         0.782241         1.136528
 O         1.610840         0.763672         1.089894
 H        -0.628026        -0.444998         0.180609
 H        -0.246518         0.544636        -1.244967
 H         0.242024        -1.201704        -1.229104
 H         1.535810        -1.828288         1.169315
 H         2.437485        -2.125060        -0.428313
 H         3.897467        -1.277100         1.794314
 H         4.303904         1.875514        -0.593927
 H         1.853522         1.841057        -1.352373
 H         2.563825         0.391913        -2.131580
 H         3.463880         1.395375         1.923866
