19
Iteration:  1485
 C        -0.055649        -0.192480        -0.329740
 C         1.424631        -0.192214        -0.206564
 C         2.383542        -1.341104         0.219793
 C         3.619624        -0.602306         1.066212
 O         4.567843        -0.146158        -0.023021
 C         3.650616         1.017781        -0.258859
 C         2.416015         0.648052        -1.261187
 C         2.882031         0.775707         1.109913
 O         1.543905         0.664655         0.975836
 H        -0.398567        -0.419037         0.730771
 H        -0.434315         0.844573        -0.326508
 H        -0.590288        -0.763441        -1.093759
 H         1.988347        -2.052931         0.877845
 H         2.913330        -1.888663        -0.740546
 H         4.054162        -1.321896         1.902432
 H         4.128387         1.891786        -0.534749
 H         1.974117         1.424374        -1.807513
 H         2.731918         0.006702        -2.077206
 H         3.312184         1.394201         1.911442
