19
Iteration:   640
 C        -0.035818        -0.299325        -0.356165
 C         1.488211        -0.168597        -0.161178
 C         2.338044        -1.350331         0.251856
 C         3.608917        -0.670521         0.992534
 O         4.477317        -0.204092        -0.101736
 C         3.605424         1.081044        -0.239257
 C         2.429955         0.661407        -1.154932
 C         2.958196         0.790878         1.118842
 O         1.605802         0.786490         0.926221
 H        -0.546727        -0.742801         0.580030
 H        -0.398273         0.756045        -0.418778
 H        -0.267923        -0.729441        -1.369082
 H         1.736605        -1.852542         1.109949
 H         2.406452        -2.032375        -0.525610
 H         3.928826        -1.239256         1.998926
 H         4.250913         1.941718        -0.349621
 H         1.985483         1.498370        -1.593403
 H         2.907691        -0.005637        -1.903410
 H         3.271306         1.328023         2.014086
