19
Iteration:  2764charge 0 multiplicity 1
 C         0.015620        -0.354501        -0.653373
 C         1.389740        -0.006578        -0.104778
 C         2.224748        -1.275593         0.445156
 C         3.530939        -0.625361         0.868901
 O         4.493168        -0.232357        -0.167144
 C         3.760288         0.942683        -0.240987
 C         2.434023         0.658978        -1.139357
 C         3.039690         0.782275         1.212757
 O         1.580227         0.792919         1.124082
 H        -0.605156        -1.163772        -0.162314
 H        -0.710152         0.449855        -0.683022
 H         0.148121        -0.648308        -1.737115
 H         1.680999        -1.681579         1.351761
 H         2.356700        -2.114325        -0.208090
 H         4.030633        -1.194371         1.642281
 H         4.396427         1.727286        -0.580305
 H         2.087727         1.579405        -1.460387
 H         2.594887         0.045001        -2.083058
 H         3.423246         1.347838         2.116109
