19
Iteration:  4725
 C         0.156615        -0.291626        -0.672502
 C         1.508048        -0.015878        -0.174875
 C         2.255506        -1.355092         0.487381
 C         3.578395        -0.760862         1.007504
 O         4.325820        -0.375175        -0.142919
 C         3.660675         0.937338        -0.288408
 C         2.400571         0.879603        -1.121396
 C         3.001732         0.745558         1.240071
 O         1.588503         0.861132         0.995621
 H         0.117972        -0.536601        -1.723373
 H        -0.247532        -1.116187        -0.104102
 H        -0.606465         0.505101        -0.633957
 H         1.567149        -1.621017         1.281834
 H         2.469294        -2.120782        -0.267942
 H         4.104019        -1.267760         1.787892
 H         4.398040         1.751606        -0.300747
 H         2.020277         1.963366        -1.151833
 H         2.643586         0.403968        -2.142406
 H         3.478154         1.365356         2.039099
