19
Iteration:  4825
 C         0.051515        -0.214176        -0.571964
 C         1.498300        -0.032571        -0.162148
 C         2.246493        -1.256629         0.329341
 C         3.539914        -0.641562         1.002464
 O         4.445072        -0.322576        -0.040200
 C         3.648424         0.906518        -0.280975
 C         2.481315         0.616653        -1.135989
 C         2.980509         0.791494         1.183726
 O         1.589429         0.824361         1.036657
 H        -0.434949         0.721442        -0.734836
 H        -0.099769        -0.796344        -1.533317
 H        -0.576329        -0.769074         0.123251
 H         1.602096        -1.847955         1.020486
 H         2.644498        -1.969799        -0.413953
 H         3.907314        -1.301992         1.819545
 H         4.227840         1.781507        -0.599137
 H         1.922586         1.505975        -1.654754
 H         2.793817        -0.051515        -2.040640
 H         3.420969         1.437917         1.866259
