19
Iteration:  1271
 C         0.172945        -0.526800        -0.734166
 C         1.484243         0.013128        -0.015228
 C         2.284400        -1.268907         0.511134
 C         3.524931        -0.732815         0.935339
 O         4.384730        -0.246691        -0.276865
 C         3.568451         0.998564        -0.252826
 C         2.316627         0.815453        -1.030438
 C         3.074262         0.757119         1.181436
 O         1.636244         0.831396         1.087194
 H        -0.505318        -1.041225        -0.012694
 H        -0.405754         0.384604        -1.105012
 H         0.543000        -1.088301        -1.646221
 H         1.720908        -1.772509         1.381063
 H         2.242293        -1.924379        -0.349414
 H         4.196500        -1.099576         1.627679
 H         4.255340         1.896708        -0.572809
 H         1.724663         1.734288        -1.294088
 H         2.580595         0.259404        -1.957292
 H         3.516180         1.403167         1.986008
