19
Iteration:   524charge 0 multiplicity 1
 C         0.118362        -0.413919        -0.666933
 C         1.481933        -0.124016        -0.079217
 C         2.296828        -1.335720         0.454510
 C         3.568068        -0.588794         0.913121
 O         4.372313        -0.316552        -0.198618
 C         3.609715         0.923004        -0.245803
 C         2.314558         0.836868        -1.103481
 C         3.095648         0.821317         1.175199
 O         1.623516         0.847547         1.097691
 H        -0.523369        -0.910935         0.009701
 H        -0.401758         0.448196        -1.029274
 H         0.290861        -1.028326        -1.545997
 H         1.867169        -1.864062         1.269560
 H         2.539354        -2.055228        -0.332358
 H         3.934026        -1.183139         1.673019
 H         4.268907         1.830859        -0.437132
 H         1.708265         1.838060        -1.239527
 H         2.529483         0.334448        -2.053772
 H         3.348512         1.444182         2.096184
