19
Iteration:  4098charge 0 multiplicity 1
 C        -0.048228        -0.063358        -0.360161
 C         1.545372        -0.118385        -0.253029
 C         2.285208        -1.465571         0.218893
 C         3.541657        -0.742363         0.962348
 O         4.471009        -0.110987        -0.006368
 C         3.606661         1.052940        -0.143155
 C         2.456435         0.617404        -1.258825
 C         2.947684         0.727237         1.216429
 O         1.632624         0.712370         0.904915
 H        -0.477246         0.026406         0.565281
 H        -0.208227         0.819658        -0.954213
 H        -0.514035        -0.896042        -0.909400
 H         1.569779        -1.906785         0.960524
 H         2.721504        -2.206771        -0.463290
 H         4.018837        -1.395642         1.716944
 H         4.199784         1.989879        -0.282745
 H         2.063365         1.501472        -1.739535
 H         2.942899        -0.165801        -1.782908
 H         3.324871         1.291111         2.081401
