19
Iteration:  4719charge 0 multiplicity 1
 C         0.114020        -0.271389        -0.665063
 C         1.512453         0.002235        -0.150804
 C         2.279017        -1.380435         0.511160
 C         3.564320        -0.718163         0.987322
 O         4.322506        -0.380776        -0.137924
 C         3.654242         0.954208        -0.252091
 C         2.458969         0.911358        -1.153895
 C         3.036505         0.730056         1.193260
 O         1.538715         0.828091         0.987099
 H         0.207420        -0.743055        -1.682764
 H        -0.327702        -1.087685         0.012124
 H        -0.379438         0.722252        -0.620153
 H         1.651603        -1.760428         1.377832
 H         2.440528        -2.250333        -0.158468
 H         4.082748        -1.351902         1.829434
 H         4.318320         1.804390        -0.514641
 H         1.980106         1.857467        -1.277425
 H         2.686898         0.561309        -2.140962
 H         3.435992         1.129908         2.109438
