19
Iteration:   769charge 0 multiplicity 1
 C         0.024660        -0.192642        -0.359502
 C         1.500039        -0.093532        -0.122184
 C         2.388219        -1.404713         0.139617
 C         3.526130        -0.664943         0.947639
 O         4.584766        -0.090641         0.022029
 C         3.628315         0.969416        -0.296565
 C         2.299892         0.512842        -1.181700
 C         2.948560         0.779480         1.134140
 O         1.546767         0.805110         1.003502
 H        -0.504503        -0.737334         0.457849
 H        -0.366333         0.800997        -0.423301
 H        -0.211572        -0.738422        -1.275328
 H         1.863446        -2.139826         0.775545
 H         2.698706        -2.026713        -0.740267
 H         3.970809        -1.200595         1.872004
 H         4.109392         1.890987        -0.575573
 H         1.730188         1.466259        -1.416429
 H         2.710433        -0.127998        -2.060466
 H         3.424174         1.290480         2.004854
