19
Iteration:  2164charge 0 multiplicity 1
 C         0.204843        -0.434239        -0.674027
 C         1.543603        -0.054457        -0.046927
 C         2.201442        -1.285832         0.505615
 C         3.511661        -0.692289         0.997641
 O         4.387097        -0.291522        -0.258155
 C         3.614744         1.016009        -0.288079
 C         2.307925         0.808913        -1.093948
 C         3.107296         0.821848         1.112954
 O         1.578685         0.809581         1.103593
 H        -0.365680        -1.087808         0.010137
 H        -0.296296         0.460713        -0.991016
 H         0.526567        -1.057091        -1.488022
 H         1.558922        -1.664193         1.248610
 H         2.393320        -2.080924        -0.279977
 H         4.077085        -1.369201         1.661218
 H         4.309641         1.841828        -0.479777
 H         1.723763         1.674460        -1.240023
 H         2.534383         0.330501        -2.029350
 H         3.500423         1.281699         2.065484
