19
Iteration:  2196charge 0 multiplicity 1
 C        -0.037032        -0.220802        -0.455419
 C         1.507427        -0.176106        -0.134028
 C         2.360082        -1.380941         0.364255
 C         3.535480        -0.686876         1.005633
 O         4.463614        -0.187586        -0.091780
 C         3.641480         1.015276        -0.268709
 C         2.423846         0.698946        -1.213337
 C         3.004035         0.852305         1.124599
 O         1.572678         0.723338         0.995292
 H        -0.628574        -0.672754         0.369716
 H        -0.346515         0.811248        -0.661925
 H        -0.308307        -0.718301        -1.387020
 H         1.766654        -1.997389         0.970421
 H         2.810855        -2.152806        -0.366652
 H         4.035557        -1.234893         1.828731
 H         4.225796         1.951778        -0.485572
 H         1.799845         1.461859        -1.628620
 H         2.752629         0.136285        -2.040810
 H         3.404616         1.395363         2.032453
