19
Iteration:   727charge 0 multiplicity 1
 C         0.095250        -0.323233        -0.462698
 C         1.503355        -0.099517        -0.203353
 C         2.292666        -1.312915         0.381519
 C         3.509686        -0.670196         0.943262
 O         4.442389        -0.208284        -0.142071
 C         3.619416         1.035149        -0.228859
 C         2.389928         0.737776        -1.169083
 C         3.048375         0.787556         1.139846
 O         1.566118         0.733628         1.026497
 H        -0.213218        -0.720836         0.588286
 H        -0.541749         0.530263        -0.789633
 H        -0.071164        -1.147857        -1.213247
 H         1.660962        -1.732197         1.265426
 H         2.562857        -2.055253        -0.342586
 H         4.186060        -1.240756         1.753558
 H         4.200600         1.914321        -0.494119
 H         1.973057         1.694777        -1.625972
 H         2.595037         0.055137        -2.098474
 H         3.322810         1.218638         2.156868
