19
Iteration:  2109
 C         0.078930        -0.290294        -0.484238
 C         1.547186        -0.099666        -0.113190
 C         2.323394        -1.389334         0.385896
 C         3.567348        -0.632392         0.932005
 O         4.409108        -0.230811        -0.126211
 C         3.593909         0.959834        -0.278923
 C         2.395505         0.753003        -1.140125
 C         2.955143         0.820975         1.119630
 O         1.592742         0.749264         1.023558
 H        -0.505147        -0.710527         0.322952
 H        -0.428162         0.641155        -0.787921
 H         0.121541        -0.934749        -1.381482
 H         1.730241        -1.807284         1.134599
 H         2.573489        -2.128833        -0.454886
 H         4.140756        -1.112263         1.731693
 H         4.292903         1.778652        -0.510562
 H         1.930825         1.710071        -1.305975
 H         2.604335         0.228976        -2.041187
 H         3.287494         1.347578         2.044423
