19
Iteration:    11
 C         0.096862        -0.285926        -0.370845
 C         1.509045        -0.147608        -0.169167
 C         2.273731        -1.374553         0.289409
 C         3.529902        -0.751569         0.949488
 O         4.471884        -0.177555        -0.035837
 C         3.587310         1.021107        -0.262539
 C         2.433169         0.688053        -1.234891
 C         2.992525         0.801741         1.156083
 O         1.565305         0.793463         0.974805
 H        -0.431504        -0.672954         0.499844
 H        -0.198357         0.793375        -0.439071
 H        -0.132286        -0.837650        -1.307563
 H         1.670075        -1.884248         1.135162
 H         2.501870        -2.048823        -0.532590
 H         4.156934        -1.094621         1.712169
 H         4.068512         1.886430        -0.513912
 H         1.847328         1.558001        -1.476474
 H         2.909199         0.329445        -2.183229
 H         3.258753         1.473140         1.953532
