19
Iteration:  4342
 C         0.124990        -0.223668        -0.616682
 C         1.559532        -0.070041        -0.090219
 C         2.199599        -1.351510         0.333732
 C         3.502325        -0.705647         0.933522
 O         4.413897        -0.275988        -0.117213
 C         3.608022         1.004984        -0.266320
 C         2.395374         0.749052        -1.123595
 C         3.027292         0.740148         1.199256
 O         1.632291         0.798441         1.084654
 H        -0.521227        -0.884033         0.050275
 H        -0.315825         0.763976        -0.850646
 H         0.146648        -0.593565        -1.620972
 H         1.563441        -1.796914         1.157495
 H         2.310186        -2.211800        -0.378037
 H         4.027748        -1.279320         1.706564
 H         4.466144         1.749563        -0.483062
 H         1.901934         1.610179        -1.464988
 H         2.639975         0.111072        -1.967948
 H         3.353105         1.227619         2.102377
