19
Iteration:  4489
 C         0.017131        -0.219404        -0.580928
 C         1.455763        -0.038899        -0.118256
 C         2.236615        -1.313328         0.236235
 C         3.516690        -0.741532         0.902606
 O         4.574353        -0.268904        -0.104916
 C         3.723298         0.886068        -0.198903
 C         2.402508         0.702051        -1.087050
 C         2.966312         0.805783         1.185516
 O         1.550586         0.805837         1.092278
 H        -0.755026         0.027163         0.113915
 H        -0.163076         0.416390        -1.503032
 H         0.116293        -1.306522        -0.770074
 H         1.638743        -1.878934         0.980730
 H         2.464462        -1.895963        -0.670449
 H         4.029247        -1.187432         1.820629
 H         4.227268         1.834570        -0.334905
 H         1.886422         1.708878        -1.323201
 H         2.636946         0.141098        -2.043281
 H         3.418318         1.353363         2.027656
