19
Iteration:  1382charge 0 multiplicity 1
 C         0.108195        -0.370378        -0.555124
 C         1.499823        -0.072646        -0.130037
 C         2.332085        -1.330088         0.411007
 C         3.591804        -0.617907         0.914403
 O         4.370215        -0.237741        -0.161225
 C         3.652647         0.927028        -0.288458
 C         2.336992         0.736096        -1.066867
 C         3.010722         0.778885         1.194744
 O         1.584863         0.817925         1.060038
 H        -0.550124        -1.059609        -0.024822
 H        -0.435102         0.558711        -0.885426
 H         0.105080        -0.980188        -1.538021
 H         1.618556        -1.831860         1.195382
 H         2.672101        -1.993382        -0.317782
 H         4.192973        -1.143270         1.569828
 H         4.271316         1.925746        -0.448468
 H         1.728372         1.622642        -1.371065
 H         2.608560         0.302721        -2.023814
 H         3.434690         1.479068         1.874144
