19
Iteration:   706charge 0 multiplicity 1
 C         0.138910        -0.412687        -0.616030
 C         1.533409        -0.124047        -0.030841
 C         2.299225        -1.376902         0.390449
 C         3.574240        -0.655921         0.975406
 O         4.295108        -0.266757        -0.238123
 C         3.627023         0.970853        -0.278296
 C         2.382738         0.776744        -1.088347
 C         3.044220         0.832233         1.191689
 O         1.625240         0.854023         1.081094
 H        -0.711516        -0.807796         0.059625
 H        -0.270806         0.452091        -1.213773
 H         0.378258        -1.141704        -1.448075
 H         1.603046        -1.641359         1.280071
 H         2.369263        -2.100356        -0.361318
 H         4.323361        -1.196395         1.726145
 H         4.102972         1.892020        -0.610536
 H         1.726935         1.659544        -1.136030
 H         2.574270         0.572373        -2.181246
 H         3.297611         1.564918         2.034556
