19
Iteration:  2167
 C         0.187967        -0.402930        -0.661161
 C         1.543896        -0.050676        -0.064331
 C         2.225352        -1.270632         0.497977
 C         3.545500        -0.688246         0.968992
 O         4.382964        -0.294098        -0.249040
 C         3.609101         0.991745        -0.276596
 C         2.325693         0.792422        -1.073182
 C         3.085348         0.822529         1.135039
 O         1.568952         0.799421         1.082834
 H        -0.319176        -1.090230         0.058904
 H        -0.320403         0.481702        -1.019904
 H         0.392150        -1.049106        -1.515966
 H         1.494654        -1.760845         1.250085
 H         2.448792        -2.038762        -0.182032
 H         4.154619        -1.258699         1.744747
 H         4.228219         1.805317        -0.516481
 H         1.690933         1.680984        -1.253388
 H         2.519225         0.315809        -2.138082
 H         3.519748         1.276066         2.073252
