19
Iteration:  2520charge 0 multiplicity 1
 C        -0.144284        -0.124029        -0.327607
 C         1.476898        -0.118934        -0.194263
 C         2.318548        -1.337740         0.225306
 C         3.494923        -0.642361         0.978482
 O         4.617762        -0.117015         0.041943
 C         3.702902         0.964302        -0.298080
 C         2.452632         0.514677        -1.211713
 C         3.023225         0.802034         1.115257
 O         1.530987         0.699327         0.969799
 H        -0.564451        -0.494708         0.602833
 H        -0.544462         0.876030        -0.700719
 H        -0.615941        -0.826207        -1.075781
 H         1.825518        -1.980860         0.953989
 H         2.617700        -1.909509        -0.729948
 H         3.974895        -1.327024         1.624930
 H         4.270995         1.919433        -0.579442
 H         1.959222         1.416005        -1.641624
 H         2.715767        -0.166759        -1.943370
 H         3.404651         1.257475         2.017836
