19
Iteration:  1539charge 0 multiplicity 1
 C         0.111637        -0.450580        -0.684189
 C         1.449290        -0.054027        -0.118700
 C         2.273800        -1.295059         0.455417
 C         3.585260        -0.620033         0.899582
 O         4.416991        -0.247760        -0.239852
 C         3.590031         0.968864        -0.248953
 C         2.383318         0.771033        -1.126997
 C         3.018689         0.816267         1.229522
 O         1.580468         0.820192         1.180671
 H        -0.391560        -1.166316         0.040570
 H        -0.431689         0.448980        -0.972772
 H         0.354986        -1.115294        -1.529092
 H         1.818212        -1.692901         1.297682
 H         2.628962        -2.193743        -0.241413
 H         4.106847        -1.280321         1.676546
 H         4.087300         1.757590        -0.661071
 H         1.969024         1.712678        -1.253915
 H         2.567673         0.170583        -1.999701
 H         3.696749         1.343863         1.887969
