19
Iteration:  3538charge 0 multiplicity 1
 C         0.040189        -0.161565        -0.428123
 C         1.483164        -0.045031        -0.139045
 C         2.331005        -1.322150         0.225894
 C         3.492534        -0.708728         0.952910
 O         4.536247        -0.154226         0.040374
 C         3.623960         0.914625        -0.274478
 C         2.418646         0.597554        -1.125069
 C         2.971592         0.736173         1.066073
 O         1.540577         0.765281         0.999827
 H        -0.511186        -0.187784         0.549578
 H        -0.144518         0.808077        -1.008171
 H        -0.139141        -1.025928        -1.071302
 H         1.756929        -2.018576         0.831733
 H         2.693539        -1.890815        -0.648221
 H         4.006358        -1.231490         1.803060
 H         4.212883         1.831226        -0.548276
 H         2.029081         1.483902        -1.632034
 H         2.677997        -0.158380        -2.085600
 H         3.171707         1.258299         1.996049
