19
Iteration:  1472
 C        -0.100161        -0.210019        -0.328497
 C         1.495122        -0.104534        -0.200925
 C         2.405628        -1.342720         0.254989
 C         3.525737        -0.624150         0.917582
 O         4.511976        -0.111648         0.040633
 C         3.583960         0.960697        -0.304982
 C         2.398465         0.629779        -1.196923
 C         3.024795         0.797923         1.135552
 O         1.601668         0.644945         0.969143
 H        -0.583629        -0.690082         0.566147
 H        -0.408775         0.807586        -0.636586
 H        -0.301769        -0.917462        -1.153807
 H         1.823128        -2.039541         0.842668
 H         2.874816        -1.927891        -0.622307
 H         4.010755        -1.112324         1.768944
 H         4.177187         1.831087        -0.588371
 H         2.024538         1.572390        -1.565973
 H         2.767718        -0.123515        -1.894007
 H         3.113452         1.557465         1.969360
