19
Iteration:  1397
 C         0.226158        -0.396520        -0.654110
 C         1.546411        -0.103847        -0.042350
 C         2.287503        -1.343768         0.484258
 C         3.514017        -0.675810         1.022591
 O         4.308570        -0.309565        -0.265828
 C         3.569947         1.061442        -0.282751
 C         2.343663         0.841315        -1.100585
 C         3.040857         0.857472         1.132246
 O         1.631178         0.765042         1.053380
 H        -0.336171        -1.021094         0.102560
 H        -0.345197         0.515062        -0.893438
 H         0.372291        -1.007920        -1.589782
 H         1.764015        -1.787805         1.302732
 H         2.437176        -2.232793        -0.293969
 H         4.208745        -1.183318         1.857428
 H         4.266440         1.770342        -0.629864
 H         1.828501         1.764915        -1.006979
 H         2.410564         0.408839        -2.105254
 H         3.327620         1.378207         2.103726
