19
Iteration:  3344
 C         0.020392        -0.249502        -0.556058
 C         1.482741        -0.110013        -0.177137
 C         2.296866        -1.391678         0.391844
 C         3.511744        -0.658945         0.959991
 O         4.454690        -0.251116        -0.077460
 C         3.701259         0.949942        -0.281102
 C         2.413710         0.741739        -1.125578
 C         2.979176         0.808486         1.163072
 O         1.602234         0.762792         1.014887
 H        -0.718424        -0.546300         0.259431
 H        -0.431376         0.638757        -1.077756
 H         0.001267        -0.979040        -1.352369
 H         1.819839        -1.825249         1.298951
 H         2.733628        -1.994150        -0.473177
 H         3.912780        -1.166680         1.891446
 H         4.297619         1.772384        -0.646747
 H         1.985546         1.755566        -1.095644
 H         2.639549         0.483796        -2.163489
 H         3.295297         1.363761         2.023235
