19
Iteration:  1170charge 0 multiplicity 1
 C         0.056117        -0.247313        -0.439190
 C         1.457662        -0.136751        -0.157098
 C         2.362563        -1.346857         0.277760
 C         3.559107        -0.676030         0.895750
 O         4.495889        -0.089490        -0.050174
 C         3.560673         0.967204        -0.306516
 C         2.441600         0.642912        -1.217056
 C         2.973349         0.808005         1.191787
 O         1.559597         0.741457         1.063179
 H        -0.275828        -0.622322         0.576076
 H        -0.457901         0.649114        -0.706762
 H        -0.139584        -1.067589        -1.133223
 H         1.715189        -1.724823         1.026739
 H         2.504563        -2.262577        -0.454427
 H         4.037226        -1.297742         1.610659
 H         4.258255         1.756588        -0.396964
 H         1.951280         1.563607        -1.607314
 H         2.769284        -0.046403        -2.054026
 H         3.134335         1.267786         2.147698
