19
Iteration:  3039charge 0 multiplicity 1
 C         0.058152        -0.394825        -0.739341
 C         1.474980         0.014326        -0.094111
 C         2.196485        -1.292555         0.506600
 C         3.515800        -0.735871         0.971777
 O         4.419061        -0.253665        -0.183781
 C         3.641025         0.973941        -0.231107
 C         2.396220         0.759006        -1.090567
 C         3.115933         0.712190         1.176766
 O         1.633783         0.879692         1.054907
 H        -0.555230        -0.639172         0.115325
 H        -0.506347         0.297295        -1.484658
 H         0.298539        -1.307187        -1.337185
 H         1.582608        -1.519829         1.384334
 H         2.269021        -2.156940        -0.199637
 H         4.295554        -1.287518         1.557395
 H         4.172204         1.857291        -0.511852
 H         2.113343         1.795557        -1.425810
 H         2.547499         0.109432        -2.013087
 H         3.470208         1.180040         2.142150
