19
Iteration:  3993charge 0 multiplicity 1
 C         0.068762        -0.238424        -0.633537
 C         1.507315        -0.110510        -0.170215
 C         2.219816        -1.336110         0.375109
 C         3.540257        -0.674851         0.995213
 O         4.466134        -0.215535        -0.098402
 C         3.619292         0.934495        -0.210328
 C         2.382416         0.709831        -1.167748
 C         3.048205         0.735089         1.202983
 O         1.641242         0.803168         1.022732
 H        -0.560337        -1.024305        -0.149152
 H        -0.551917         0.654238        -0.200564
 H        -0.082776        -0.206976        -1.714868
 H         1.601207        -1.721625         1.188222
 H         2.307344        -2.187557        -0.303985
 H         3.975717        -1.364215         1.739825
 H         4.162309         1.920952        -0.307826
 H         1.843195         1.590901        -1.571065
 H         2.760786         0.221700        -2.044657
 H         3.515598         1.254233         2.039892
