19
Iteration:  2401charge 0 multiplicity 1
 C        -0.012764        -0.277541        -0.481594
 C         1.466454        -0.125139        -0.174311
 C         2.268105        -1.285168         0.312357
 C         3.586268        -0.630229         0.934799
 O         4.511314        -0.205995        -0.070059
 C         3.637671         0.918434        -0.292165
 C         2.396403         0.641058        -1.201007
 C         2.990985         0.803783         1.221807
 O         1.625209         0.811589         1.066642
 H        -0.534620        -0.833388         0.328657
 H        -0.552530         0.680793        -0.772337
 H        -0.186687        -1.039266        -1.282891
 H         1.560423        -1.682546         1.045299
 H         2.529959        -2.046534        -0.517886
 H         4.010204        -1.307123         1.641996
 H         4.243719         1.847287        -0.516133
 H         2.001621         1.626307        -1.719618
 H         2.701487        -0.107695        -1.917860
 H         3.365744         1.408400         2.092775
