19
Iteration:  2166
 C         0.193299        -0.413144        -0.667190
 C         1.545281        -0.051785        -0.057131
 C         2.216389        -1.275242         0.500984
 C         3.533346        -0.689779         0.979485
 O         4.385259        -0.293436        -0.252961
 C         3.611282         1.001217        -0.280380
 C         2.318190         0.799564        -1.079634
 C         3.093366         0.822881         1.124715
 O         1.571140         0.802526         1.089849
 H        -0.331817        -1.097067         0.045250
 H        -0.302433         0.468676        -1.008369
 H         0.438429        -1.048147        -1.497030
 H         1.512122        -1.729727         1.247489
 H         2.428928        -2.049218        -0.211025
 H         4.131683        -1.305634         1.720259
 H         4.248912         1.806805        -0.498875
 H         1.704659         1.668727        -1.248245
 H         2.526280         0.317398        -2.111929
 H         3.520288         1.276584         2.084676
