19
Iteration:   607
 C         0.024539        -0.254039        -0.323684
 C         1.494507        -0.081117        -0.173014
 C         2.339470        -1.330319         0.154720
 C         3.547452        -0.661740         0.996801
 O         4.552236        -0.123683         0.069573
 C         3.644726         0.961515        -0.402005
 C         2.385878         0.610349        -1.203414
 C         2.964728         0.768319         1.089221
 O         1.556000         0.747615         1.055693
 H        -0.529811        -0.815444         0.554828
 H        -0.381920         0.785456        -0.439525
 H        -0.272892        -0.905658        -1.201400
 H         1.692435        -2.009432         0.856032
 H         2.542042        -1.839288        -0.738886
 H         3.659398        -1.233410         2.028054
 H         4.181045         1.844196        -0.746525
 H         2.006797         1.491304        -1.598804
 H         2.514408        -0.023934        -2.110510
 H         3.364399         1.345456         1.896032
