19
Iteration:  2388charge 0 multiplicity 1
 C        -0.004537        -0.224262        -0.349623
 C         1.500730        -0.052216        -0.208594
 C         2.328432        -1.317435         0.230498
 C         3.537374        -0.698942         0.963037
 O         4.524538        -0.172398         0.057598
 C         3.597560         0.994761        -0.261245
 C         2.378561         0.559122        -1.218211
 C         3.014284         0.767680         1.105922
 O         1.585830         0.748586         0.948015
 H        -0.355297        -0.450292         0.637315
 H        -0.362646         0.863004        -0.517381
 H        -0.303765        -0.831802        -1.256198
 H         1.906025        -1.887716         1.115417
 H         2.517264        -2.115763        -0.507068
 H         4.018568        -1.211838         1.799675
 H         4.160311         1.869409        -0.731735
 H         1.845643         1.546733        -1.501323
 H         2.618243         0.099501        -2.133315
 H         3.280378         1.328277         2.025630
