19
Iteration:  2821
 C        -0.129157        -0.152569        -0.384633
 C         1.465052        -0.077428        -0.222622
 C         2.374398        -1.370686         0.271936
 C         3.538220        -0.671694         0.996242
 O         4.578292        -0.284732         0.020962
 C         3.634601         1.023396        -0.270293
 C         2.443542         0.682059        -1.164057
 C         2.971216         0.787968         1.107057
 O         1.545477         0.688708         0.937590
 H        -0.470991        -0.383800         0.584851
 H        -0.426019         0.913577        -0.621795
 H        -0.470734        -0.947808        -1.117240
 H         1.678577        -1.965489         0.938135
 H         2.898031        -1.939016        -0.509420
 H         4.047085        -1.140761         1.893573
 H         4.236236         1.873370        -0.583685
 H         2.064756         1.608925        -1.548084
 H         2.858941         0.137314        -1.992084
 H         3.345919         1.494889         1.777654
