19
Iteration:  3929
 C        -0.017449        -0.210049        -0.500438
 C         1.520905        -0.108819        -0.163186
 C         2.254423        -1.413253         0.297499
 C         3.492847        -0.691809         0.958998
 O         4.415931        -0.211321        -0.021093
 C         3.683809         0.970800        -0.202991
 C         2.491513         0.760347        -1.175614
 C         3.016618         0.752239         1.145698
 O         1.623175         0.778654         0.928293
 H        -0.390639        -0.422320         0.572329
 H        -0.549915         0.720938        -0.928563
 H        -0.086181        -1.107497        -1.092556
 H         1.648277        -1.783509         1.174501
 H         2.427875        -2.205891        -0.470003
 H         4.073110        -1.176466         1.770268
 H         4.408178         1.799804        -0.322165
 H         1.915181         1.683987        -1.319889
 H         2.653139         0.138321        -2.079089
 H         3.281279         1.336322         2.018372
