19
Iteration:  2189
 C        -0.041979        -0.256120        -0.520876
 C         1.510897        -0.144989        -0.140133
 C         2.408690        -1.387677         0.364209
 C         3.561130        -0.625576         1.037100
 O         4.409470        -0.226871        -0.150814
 C         3.639750         0.990068        -0.281223
 C         2.406899         0.711596        -1.161516
 C         2.975178         0.819674         1.159319
 O         1.595049         0.764484         1.020163
 H        -0.591960        -0.770155         0.293435
 H        -0.267327         0.783963        -0.691437
 H        -0.143733        -0.843302        -1.423448
 H         1.846870        -1.840377         1.270092
 H         2.610939        -2.132609        -0.335347
 H         4.086676        -1.383307         1.659821
 H         4.287117         1.796119        -0.474062
 H         1.926226         1.663601        -1.458508
 H         2.777353         0.153293        -2.120273
 H         3.183876         1.461956         2.048940
