19
Iteration:  2042
 C         0.028706        -0.335263        -0.496803
 C         1.459621        -0.143399        -0.150861
 C         2.235059        -1.349301         0.297220
 C         3.532695        -0.638370         0.947137
 O         4.493106        -0.169408        -0.084208
 C         3.616177         0.996845        -0.246523
 C         2.354293         0.653081        -1.156450
 C         3.058708         0.801281         1.147939
 O         1.651077         0.784955         1.062582
 H        -0.559565        -0.776280         0.264509
 H        -0.275031         0.709003        -0.640925
 H         0.129826        -0.890997        -1.443700
 H         1.693426        -1.804937         1.058406
 H         2.464880        -2.065378        -0.571824
 H         4.061072        -1.132184         1.760924
 H         3.992637         2.024333        -0.573431
 H         1.910009         1.583013        -1.520210
 H         2.783762         0.112518        -1.925996
 H         3.387064         1.348027         2.003835
