19
Iteration:  2026
 C         0.157925        -0.351451        -0.604785
 C         1.562909        -0.044498        -0.103505
 C         2.302300        -1.300896         0.453958
 C         3.541743        -0.666188         0.966944
 O         4.359804        -0.286746        -0.178048
 C         3.584643         1.037049        -0.298574
 C         2.366333         0.789616        -1.099809
 C         3.032637         0.797607         1.151861
 O         1.608442         0.736742         1.043979
 H        -0.408964        -1.045490         0.129873
 H        -0.595196         0.439166        -0.843416
 H         0.147183        -1.079659        -1.454044
 H         1.598839        -1.812607         1.256499
 H         2.568026        -2.041038        -0.244806
 H         4.065222        -1.252978         1.752089
 H         4.329001         1.798657        -0.483756
 H         1.702678         1.663168        -1.231487
 H         2.460162         0.309641        -2.156895
 H         3.377142         1.462888         1.989667
