19
Iteration:  4653
 C        -0.114978        -0.181036        -0.500941
 C         1.406165        -0.048757        -0.173132
 C         2.246707        -1.352570         0.160561
 C         3.525314        -0.705389         0.937564
 O         4.584092        -0.226802         0.079909
 C         3.713020         0.950614        -0.244729
 C         2.487943         0.645862        -1.137822
 C         3.024336         0.775807         1.136861
 O         1.584755         0.768017         1.032184
 H        -0.619307        -1.152941        -0.545883
 H        -0.627027         0.328244         0.405617
 H        -0.534960         0.241281        -1.428528
 H         1.731221        -2.097567         0.826578
 H         2.610313        -1.792112        -0.795537
 H         4.097644        -1.230080         1.832202
 H         4.337926         1.810381        -0.567837
 H         2.156901         1.589549        -1.437873
 H         2.715756        -0.002323        -2.004200
 H         3.289391         1.405032         1.950359
