19
Iteration:  1827charge 0 multiplicity 1
 C         0.040873        -0.392206        -0.619631
 C         1.529987        -0.123500        -0.153219
 C         2.323584        -1.365730         0.439531
 C         3.546796        -0.645338         1.029626
 O         4.378082        -0.300384        -0.258586
 C         3.629887         1.055124        -0.283325
 C         2.393638         0.772849        -1.074646
 C         3.038833         0.803526         1.228991
 O         1.583682         0.809080         1.039749
 H        -0.436778        -0.900624         0.209286
 H        -0.465333         0.521520        -0.979623
 H         0.048012        -0.993633        -1.546883
 H         1.765497        -1.745751         1.270855
 H         2.672282        -2.086276        -0.225191
 H         4.169438        -0.937465         1.880403
 H         4.143918         1.935157        -0.497803
 H         1.900951         1.721748        -1.173160
 H         2.640177         0.331631        -2.022798
 H         3.443758         1.528711         1.937823
