19
Iteration:  1055charge 0 multiplicity 1
 C        -0.033546        -0.155438        -0.329113
 C         1.497507        -0.114009        -0.165725
 C         2.414879        -1.345186         0.216125
 C         3.535478        -0.678966         0.964883
 O         4.490243        -0.089700         0.028273
 C         3.574614         0.959754        -0.287333
 C         2.376677         0.616538        -1.265817
 C         2.934013         0.784749         1.134515
 O         1.631482         0.653304         0.964120
 H        -0.415140        -0.668985         0.530361
 H        -0.483653         0.837149        -0.456045
 H        -0.320755        -0.752825        -1.213034
 H         1.838175        -2.067991         0.965901
 H         2.820207        -2.032806        -0.453644
 H         4.169556        -1.113715         1.850715
 H         4.045441         1.954213        -0.618998
 H         1.997797         1.593264        -1.610675
 H         2.849575        -0.057736        -1.979464
 H         3.272192         1.257162         2.057216
