19
Iteration:  4125
 C         0.018919        -0.145101        -0.543514
 C         1.518316        -0.093933        -0.148692
 C         2.282595        -1.359984         0.261311
 C         3.520980        -0.647322         0.919668
 O         4.488552        -0.222027        -0.039385
 C         3.620767         0.955337        -0.256254
 C         2.426755         0.667740        -1.114660
 C         2.968654         0.761450         1.189699
 O         1.572678         0.718036         1.051728
 H        -0.608018        -0.409864         0.400998
 H        -0.192936         0.884839        -0.893449
 H        -0.236889        -0.884275        -1.337566
 H         1.806075        -2.018008         0.976562
 H         2.770185        -1.962581        -0.518993
 H         3.921493        -1.309218         1.712219
 H         4.295700         1.794955        -0.539064
 H         2.092199         1.726675        -1.513064
 H         2.766929        -0.044655        -1.959827
 H         3.435359         1.399787         1.950912
