19
Iteration:  2604
 C         0.156057        -0.440884        -0.686972
 C         1.490462        -0.026772        -0.094965
 C         2.178070        -1.241552         0.509397
 C         3.548566        -0.666052         0.940099
 O         4.384045        -0.319529        -0.187848
 C         3.676632         0.951333        -0.317409
 C         2.332182         0.817859        -1.040296
 C         3.083645         0.733960         1.161574
 O         1.634475         0.852782         1.054321
 H        -0.283653        -1.187053        -0.078886
 H        -0.540454         0.416707        -0.693938
 H         0.464447        -0.894372        -1.664308
 H         1.529246        -1.522466         1.364962
 H         2.101792        -2.025968        -0.199432
 H         4.224193        -1.272300         1.643696
 H         4.251462         1.865395        -0.581820
 H         1.830124         1.816938        -1.195150
 H         2.385960         0.349896        -2.074952
 H         3.470508         1.162378         2.121336
