19
Iteration:  3706charge 0 multiplicity 1
 C         0.111307        -0.271409        -0.606105
 C         1.500897         0.000770        -0.078147
 C         2.235853        -1.382651         0.324038
 C         3.444037        -0.703190         1.004636
 O         4.484302        -0.258675        -0.073167
 C         3.693032         0.944274        -0.326011
 C         2.397692         0.775068        -1.142842
 C         3.033500         0.796282         1.126853
 O         1.568415         0.753807         1.085544
 H        -0.478012        -0.499348         0.260099
 H        -0.270277         0.507817        -1.223593
 H         0.197746        -1.205747        -1.217865
 H         1.622101        -1.866007         1.075550
 H         2.419849        -2.164813        -0.393321
 H         3.848966        -1.187110         1.896957
 H         4.234037         1.837460        -0.606991
 H         1.943359         1.746642        -1.313263
 H         2.538126         0.418179        -2.135627
 H         3.422328         1.354791         1.997455
