19
Iteration:  4737
 C         0.118758        -0.351928        -0.696463
 C         1.567922        -0.023061        -0.153917
 C         2.197308        -1.235822         0.359317
 C         3.450876        -0.716476         1.014459
 O         4.368414        -0.351685        -0.158657
 C         3.676364         0.881487        -0.183041
 C         2.398594         0.763735        -1.060613
 C         3.041848         0.811176         1.189866
 O         1.679195         0.870472         1.069179
 H         0.239169        -0.397765        -1.750182
 H        -0.229597        -1.372419        -0.415619
 H        -0.549069         0.438711        -0.326427
 H         1.495062        -1.694913         1.075341
 H         2.350719        -2.053146        -0.364954
 H         4.065656        -1.323265         1.699393
 H         4.344027         1.692148        -0.529779
 H         1.776438         1.729471        -1.218557
 H         2.445086         0.329071        -2.143285
 H         3.200533         1.576356         1.938052
