19
Iteration:  1127
 C         0.185527        -0.455606        -0.669223
 C         1.544184        -0.061177        -0.103515
 C         2.325603        -1.379607         0.439251
 C         3.542169        -0.654215         0.940489
 O         4.281970        -0.276376        -0.222560
 C         3.643867         0.984379        -0.309612
 C         2.357131         0.831809        -1.047318
 C         3.029318         0.829334         1.186594
 O         1.585710         0.849936         1.157127
 H        -0.544749        -0.966069         0.050788
 H        -0.350503         0.326348        -1.213629
 H         0.433252        -1.099345        -1.540263
 H         1.790295        -1.817832         1.285578
 H         2.518793        -2.294679        -0.283081
 H         4.092241        -1.208921         1.625728
 H         4.215863         1.837994        -0.793541
 H         1.851143         1.804796        -0.967676
 H         2.427894         0.365719        -2.064302
 H         3.461124         1.514263         1.875241
