19
Iteration:  2456charge 0 multiplicity 1
 C         0.122827        -0.372717        -0.713627
 C         1.539896        -0.091339        -0.129024
 C         2.316068        -1.302500         0.587506
 C         3.609962        -0.690147         1.068957
 O         4.263362        -0.350741        -0.244095
 C         3.610690         0.953248        -0.312003
 C         2.369241         0.869773        -1.143728
 C         3.091797         0.834900         1.122719
 O         1.590205         0.782945         1.095822
 H        -0.293223        -0.951145         0.122771
 H        -0.417237         0.574640        -0.939459
 H         0.215245        -0.948176        -1.646075
 H         1.545750        -1.562426         1.292476
 H         2.442876        -2.252290        -0.070475
 H         4.126672        -1.219314         1.823378
 H         4.288739         1.836314        -0.481793
 H         1.956738         1.956828        -1.118891
 H         2.438936         0.623450        -2.206641
 H         3.425424         1.381504         1.988609
