19
Iteration:    33charge 0 multiplicity 1
 C        -0.071622        -0.213603        -0.277551
 C         1.418999        -0.084654        -0.301082
 C         2.373621        -1.371925         0.221334
 C         3.491592        -0.638541         0.927419
 O         4.507372        -0.123480         0.026437
 C         3.700997         0.983655        -0.226689
 C         2.458705         0.615935        -1.167361
 C         2.954532         0.734207         1.134328
 O         1.610927         0.742802         0.890499
 H        -0.189278        -0.745327         0.677926
 H        -0.612676         0.731761        -0.117978
 H        -0.515508        -0.877450        -1.026498
 H         1.817255        -1.904104         1.048044
 H         2.831479        -2.058719        -0.509304
 H         4.013752        -1.103858         1.707927
 H         4.168195         1.825963        -0.439991
 H         2.083771         1.508029        -1.663340
 H         2.717393        -0.091497        -1.964770
 H         3.189240         1.283357         2.047312
