19
Iteration:  3687
 C        -0.023673        -0.156638        -0.496151
 C         1.493913        -0.103844        -0.211154
 C         2.364247        -1.298308         0.253407
 C         3.567246        -0.647422         0.976321
 O         4.492620        -0.268256        -0.001424
 C         3.645802         0.905730        -0.230577
 C         2.417122         0.619627        -1.140855
 C         2.928665         0.770902         1.179195
 O         1.568152         0.776852         1.005298
 H        -0.524712        -0.384097         0.414688
 H        -0.321690         0.908326        -0.740467
 H        -0.300467        -0.839553        -1.304219
 H         1.785891        -2.052966         0.883874
 H         2.803067        -1.826262        -0.613385
 H         4.012868        -1.277574         1.724384
 H         4.220034         1.826632        -0.538737
 H         1.915259         1.623875        -1.582914
 H         2.696320         0.107929        -2.024450
 H         3.337815         1.465216         1.924750
