19
Iteration:   937
 C         0.035273        -0.339927        -0.528337
 C         1.475073        -0.117603        -0.132833
 C         2.329818        -1.304943         0.299113
 C         3.537803        -0.598176         0.951796
 O         4.456549        -0.182149        -0.084876
 C         3.619304         0.997279        -0.295008
 C         2.364238         0.633507        -1.119111
 C         3.049059         0.788225         1.126824
 O         1.608377         0.773159         1.095139
 H        -0.437170        -0.918384         0.223056
 H        -0.451455         0.643204        -0.687795
 H        -0.081407        -0.708571        -1.549022
 H         1.744274        -1.869236         1.002309
 H         2.553222        -1.963921        -0.540543
 H         4.088444        -1.315355         1.610570
 H         4.135366         1.872546        -0.435673
 H         1.804255         1.587113        -1.288096
 H         2.586792         0.008455        -1.975922
 H         3.410622         1.285046         2.013830
