19
Iteration:  2121charge 0 multiplicity 1
 C         0.109691        -0.427035        -0.612415
 C         1.463478        -0.052371        -0.091268
 C         2.297241        -1.241404         0.417608
 C         3.560131        -0.681356         0.991347
 O         4.422733        -0.300819        -0.270530
 C         3.647635         0.988082        -0.248253
 C         2.344019         0.780781        -1.083486
 C         3.059256         0.768555         1.226054
 O         1.573281         0.815316         1.050600
 H        -0.537038        -0.931420         0.124782
 H        -0.277832         0.534486        -0.938661
 H         0.146158        -1.120834        -1.436914
 H         1.769086        -1.745225         1.203531
 H         2.545674        -2.059134        -0.317434
 H         4.070906        -1.213562         1.810310
 H         4.181193         1.901439        -0.450431
 H         1.808866         1.664816        -1.360888
 H         2.553531         0.239092        -2.037764
 H         3.341626         1.649529         1.889324
