19
Iteration:  2773charge 0 multiplicity 1
 C        -0.013109        -0.257572        -0.608421
 C         1.445948        -0.011305        -0.116125
 C         2.243226        -1.310245         0.345677
 C         3.529725        -0.672471         0.972789
 O         4.523419        -0.221969        -0.091100
 C         3.684451         0.958256        -0.227039
 C         2.354421         0.633366        -1.191083
 C         3.021166         0.779991         1.142600
 O         1.623113         0.766515         1.086105
 H        -0.394426        -1.175066         0.013604
 H        -0.610880         0.619581        -0.439564
 H         0.065466        -0.627057        -1.629765
 H         1.808603        -1.726603         1.241454
 H         2.405013        -2.025470        -0.456648
 H         4.100958        -1.073110         1.768036
 H         4.191663         1.920559        -0.410225
 H         2.069506         1.492519        -1.774969
 H         2.690472        -0.188764        -1.888378
 H         3.455944         1.407118         2.001223
