19
Iteration:  2020
 C         0.153748        -0.411885        -0.645112
 C         1.572217        -0.067507        -0.136584
 C         2.337089        -1.337191         0.499022
 C         3.551680        -0.669416         0.959982
 O         4.303362        -0.304671        -0.214237
 C         3.653868         0.954482        -0.322056
 C         2.364760         0.862563        -1.118710
 C         2.982230         0.832643         1.192026
 O         1.585914         0.796445         1.109431
 H        -0.370393        -0.944932         0.107978
 H        -0.453344         0.499712        -0.759460
 H         0.253075        -1.077979        -1.513334
 H         1.634059        -1.643577         1.201284
 H         2.639069        -2.156905        -0.242364
 H         4.234817        -1.199699         1.631495
 H         4.241858         1.919362        -0.559836
 H         1.802659         1.803772        -1.204659
 H         2.443164         0.377033        -2.032193
 H         3.273053         1.364242         2.067399
