19
Iteration:  4071
 C        -0.025430        -0.244789        -0.528958
 C         1.506849        -0.039734        -0.130145
 C         2.244479        -1.305618         0.250370
 C         3.543740        -0.709457         0.906344
 O         4.554786        -0.224353        -0.047972
 C         3.722228         0.961074        -0.235302
 C         2.462960         0.669787        -1.165736
 C         2.927404         0.769230         1.153702
 O         1.543045         0.767398         1.087396
 H        -0.726141        -0.340091         0.422587
 H        -0.362587         0.646270        -1.151922
 H        -0.156179        -1.105000        -1.209950
 H         1.591786        -1.799846         0.969493
 H         2.492172        -1.997590        -0.569677
 H         3.885798        -1.332817         1.743611
 H         4.319623         1.859624        -0.462889
 H         2.041657         1.688279        -1.151201
 H         2.642130         0.019533        -2.057824
 H         3.440049         1.241857         1.999246
