19
Iteration:  1310
 C        -0.008491        -0.255165        -0.449371
 C         1.460944        -0.133572        -0.152676
 C         2.349190        -1.371321         0.341216
 C         3.600214        -0.631198         0.987476
 O         4.451574        -0.175948        -0.102461
 C         3.615021         1.008274        -0.252645
 C         2.357354         0.711826        -1.157257
 C         3.026709         0.793376         1.119233
 O         1.600372         0.703102         0.985153
 H        -0.511183        -0.707065         0.410179
 H        -0.305260         0.716446        -0.797365
 H        -0.214437        -0.988818        -1.197343
 H         1.854009        -2.031985         0.982697
 H         2.878853        -1.941873        -0.514078
 H         3.955203        -1.177102         1.950077
 H         4.087364         1.902505        -0.452331
 H         2.064844         1.658486        -1.596396
 H         2.664427         0.117245        -2.038529
 H         3.199873         1.325718         2.059576
