19
Iteration:  1448charge 0 multiplicity 1
 C         0.104939        -0.359276        -0.520731
 C         1.488187        -0.161038        -0.132975
 C         2.242762        -1.337786         0.365028
 C         3.558311        -0.682931         0.899809
 O         4.502207        -0.157513        -0.126540
 C         3.595340         1.009111        -0.272685
 C         2.357644         0.708133        -1.123933
 C         3.047187         0.752075         1.157230
 O         1.549471         0.860016         1.090545
 H        -0.465246        -0.878388         0.248285
 H        -0.300618         0.606111        -0.889835
 H         0.079708        -1.106570        -1.349558
 H         1.777595        -2.075893         1.089146
 H         2.494220        -1.893817        -0.474103
 H         4.047862        -1.193024         1.642683
 H         4.327429         1.862313        -0.523148
 H         1.850902         1.647179        -1.464984
 H         2.566494        -0.049265        -1.896252
 H         3.377903         1.482422         1.898975
