19
Iteration:  4802
 C         0.011954        -0.070676        -0.443957
 C         1.489152        -0.130458        -0.204440
 C         2.258769        -1.470633         0.365088
 C         3.480598        -0.706552         1.004969
 O         4.483443        -0.207482         0.008175
 C         3.718583         1.010379        -0.260280
 C         2.510590         0.633502        -1.206307
 C         2.911862         0.800702         1.104886
 O         1.611933         0.751529         0.916675
 H        -0.256650         0.781894        -1.031628
 H        -0.541320        -0.922279        -0.930310
 H        -0.563901        -0.000313         0.486279
 H         1.687202        -1.988241         1.162474
 H         2.507137        -2.284818        -0.346282
 H         3.897366        -1.182174         1.901025
 H         4.369476         1.904909        -0.398224
 H         1.987521         1.616771        -1.642848
 H         2.899167         0.130417        -2.203527
 H         3.229867         1.216035         2.046161
