19
Iteration:  4432charge 0 multiplicity 1
 C         0.126948        -0.262692        -0.639518
 C         1.494450        -0.036948        -0.108359
 C         2.257806        -1.307796         0.488927
 C         3.508318        -0.748498         0.869964
 O         4.385276        -0.320521        -0.164959
 C         3.722730         0.961516        -0.254475
 C         2.446741         0.837000        -1.086396
 C         2.976642         0.764667         1.209605
 O         1.582625         0.784396         1.027728
 H        -0.425556        -0.949185         0.018936
 H        -0.450317         0.571490        -0.893990
 H         0.076449        -0.823066        -1.572016
 H         1.628149        -1.764367         1.262373
 H         2.376663        -2.056576        -0.287954
 H         3.949392        -1.280842         1.690455
 H         4.346793         1.850747        -0.371742
 H         1.892074         1.720002        -1.305618
 H         2.636547         0.337454        -2.081038
 H         3.396379         1.259147         2.141750
