19
Iteration:  3904
 C         0.137014        -0.356426        -0.728606
 C         1.534387        -0.008247        -0.117855
 C         2.207101        -1.247848         0.419407
 C         3.547679        -0.700882         0.962096
 O         4.363540        -0.347380        -0.224961
 C         3.651267         0.999023        -0.218771
 C         2.452661         0.734348        -1.084506
 C         3.050675         0.755667         1.234511
 O         1.545691         0.847242         1.106012
 H        -0.427032        -0.365182         0.201954
 H        -0.340569         0.450709        -1.464737
 H         0.313708        -1.405221        -1.144280
 H         1.542307        -1.553044         1.218329
 H         2.339811        -2.049217        -0.310815
 H         4.168319        -1.434744         1.488405
 H         4.322099         1.894927        -0.385870
 H         1.894248         1.684768        -1.328088
 H         2.601943         0.131347        -1.914763
 H         3.381193         1.315937         2.111373
