19
Iteration:  3604
 C         0.219388        -0.390897        -0.691330
 C         1.558649        -0.105452        -0.107702
 C         2.267756        -1.339508         0.430299
 C         3.472962        -0.730025         0.988166
 O         4.274667        -0.352654        -0.188941
 C         3.691144         0.954989        -0.254471
 C         2.357354         0.814667        -1.053671
 C         3.038931         0.891062         1.157273
 O         1.602203         0.886751         1.102815
 H        -0.566555        -1.004884        -0.127880
 H        -0.171905         0.652886        -0.912035
 H         0.353402        -0.800313        -1.678554
 H         1.575782        -1.793245         1.112502
 H         2.555181        -1.945393        -0.439591
 H         3.978768        -1.287609         1.828626
 H         4.312331         1.758571        -0.681376
 H         1.880544         1.765241        -0.986438
 H         2.510720         0.302463        -2.109326
 H         3.578786         1.441949         1.917300
