19
Iteration:  3356charge 0 multiplicity 1
 C        -0.005831        -0.225677        -0.543828
 C         1.508508        -0.108968        -0.196598
 C         2.306450        -1.398148         0.297122
 C         3.483547        -0.700519         1.010396
 O         4.541778        -0.173176        -0.009935
 C         3.624640         0.954878        -0.261423
 C         2.404214         0.682932        -1.169503
 C         3.019979         0.774704         1.142703
 O         1.594747         0.815307         1.016657
 H        -0.495882        -0.336071         0.515352
 H        -0.244028         0.797213        -0.892232
 H        -0.346560        -1.089275        -1.126570
 H         1.584001        -2.048564         0.845184
 H         2.519858        -2.253281        -0.438631
 H         4.108753        -1.229865         1.784808
 H         4.183441         1.850594        -0.457834
 H         1.840091         1.636364        -1.469201
 H         2.514825         0.097994        -2.039913
 H         3.374848         1.327612         1.988870
