19
Iteration:  3105charge 0 multiplicity 1
 C        -0.082013        -0.205481        -0.449942
 C         1.406765        -0.064370        -0.178439
 C         2.296379        -1.288163         0.270833
 C         3.546824        -0.701707         0.928912
 O         4.604891        -0.125967         0.031178
 C         3.660781         0.903754        -0.240749
 C         2.481879         0.504177        -1.195607
 C         3.005194         0.700833         1.153843
 O         1.560232         0.848566         0.969816
 H        -0.704234        -0.846199         0.181602
 H        -0.418819         0.870594        -0.206408
 H        -0.442358        -0.306996        -1.451033
 H         1.802310        -1.865986         1.036911
 H         2.754316        -1.929143        -0.516425
 H         3.802391        -1.424085         1.747933
 H         4.040406         1.888488        -0.389847
 H         2.002816         1.426952        -1.702304
 H         2.752964        -0.203280        -2.002514
 H         3.301825         1.416055         1.983884
