19
Iteration:  3854
 C         0.084916        -0.267541        -0.612762
 C         1.505541        -0.056290        -0.162729
 C         2.299373        -1.306922         0.396770
 C         3.510138        -0.654262         0.952551
 O         4.419513        -0.309811        -0.119237
 C         3.685440         0.871851        -0.225315
 C         2.418612         0.738660        -1.060290
 C         2.972514         0.817980         1.155139
 O         1.571857         0.799253         1.007881
 H        -0.575151        -0.664051         0.169760
 H        -0.301997         0.721535        -0.669711
 H         0.190115        -0.750846        -1.530316
 H         1.684823        -1.746706         1.237587
 H         2.355453        -2.153113        -0.339161
 H         4.103018        -1.224357         1.707015
 H         4.321241         1.645784        -0.642703
 H         2.044605         1.754055        -1.262515
 H         2.659597         0.284732        -2.099081
 H         3.252778         1.351857         2.053119
