19
Iteration:  1105charge 0 multiplicity 1
 C         0.158472        -0.448424        -0.652866
 C         1.491882        -0.041328        -0.061905
 C         2.218929        -1.228943         0.426489
 C         3.572780        -0.634780         1.003646
 O         4.403704        -0.290430        -0.212436
 C         3.613233         1.006372        -0.282382
 C         2.280561         0.799483        -1.138170
 C         3.075691         0.773208         1.197122
 O         1.637718         0.759699         1.102894
 H        -0.468216        -1.165403         0.003344
 H        -0.483533         0.359762        -1.023892
 H         0.472359        -0.954725        -1.587287
 H         1.779691        -1.710630         1.242091
 H         2.414993        -2.073621        -0.360360
 H         4.144217        -1.226269         1.626632
 H         4.039403         2.009815        -0.447126
 H         1.774616         1.749839        -1.344411
 H         2.534559         0.188132        -2.041349
 H         3.506250         1.383753         1.948763
