19
Iteration:  3229charge 0 multiplicity 1
 C        -0.020238        -0.120992        -0.397237
 C         1.503040        -0.156952        -0.185075
 C         2.363062        -1.435484         0.219105
 C         3.504083        -0.611181         0.931219
 O         4.508338        -0.177143        -0.003261
 C         3.612763         0.985728        -0.226599
 C         2.547240         0.538304        -1.187967
 C         2.952410         0.738078         1.180600
 O         1.527345         0.818915         0.991824
 H        -0.430448        -0.161689         0.635740
 H        -0.374631         0.792599        -0.780808
 H        -0.498920        -0.828504        -1.132988
 H         1.726342        -2.178988         0.751959
 H         2.708584        -1.883901        -0.710177
 H         3.912654        -1.143591         1.780402
 H         4.059112         1.961616        -0.627293
 H         2.061108         1.478446        -1.590885
 H         2.777159        -0.116123        -2.011627
 H         3.259021         1.335469         2.026264
