19
Iteration:  2578charge 0 multiplicity 1
 C         0.110321        -0.465127        -0.728930
 C         1.484822        -0.025225        -0.049180
 C         2.210996        -1.298785         0.468941
 C         3.493328        -0.704448         0.892977
 O         4.345988        -0.333616        -0.265440
 C         3.627466         0.943967        -0.251048
 C         2.458958         0.772845        -1.071257
 C         3.061932         0.914709         1.202188
 O         1.657557         0.888031         1.175748
 H        -0.511516        -1.074432         0.008241
 H        -0.513127         0.309131        -1.047085
 H         0.580540        -1.038060        -1.485832
 H         1.591335        -1.705255         1.295963
 H         2.134349        -2.054878        -0.344315
 H         4.155780        -1.221985         1.554989
 H         4.108711         1.834317        -0.518606
 H         1.956566         1.651097        -1.454251
 H         2.778309         0.201783        -2.031483
 H         3.602392         1.351848         2.060266
