19
Iteration:   865
 C         0.051211        -0.345056        -0.534184
 C         1.478258        -0.100532        -0.071294
 C         2.334244        -1.293500         0.352376
 C         3.569828        -0.665529         0.940571
 O         4.433076        -0.235102        -0.147575
 C         3.648528         0.989998        -0.283187
 C         2.422113         0.756730        -1.175200
 C         3.030117         0.789438         1.111642
 O         1.507260         0.748199         1.143448
 H        -0.543640        -0.772089         0.307413
 H        -0.426064         0.519475        -1.026862
 H         0.060075        -1.093687        -1.359490
 H         1.845601        -1.957662         1.078790
 H         2.641041        -1.959787        -0.567616
 H         3.992111        -1.035083         1.826711
 H         4.310718         1.906968        -0.693102
 H         1.889203         1.691490        -1.205978
 H         2.611790         0.208858        -2.108565
 H         3.475376         1.477029         1.893663
