19
Iteration:  4893charge 0 multiplicity 1
 C         0.101397        -0.186125        -0.562377
 C         1.542093        -0.098833        -0.210552
 C         2.260308        -1.339720         0.452760
 C         3.508100        -0.690455         1.077169
 O         4.350054        -0.342567        -0.053155
 C         3.630063         0.968083        -0.293665
 C         2.474470         0.702584        -1.198112
 C         3.005844         0.798446         1.172860
 O         1.600084         0.832691         0.952462
 H        -0.432805         0.413348         0.195287
 H        -0.019286         0.062427        -1.610507
 H        -0.153560        -1.241341        -0.526668
 H         1.461252        -1.713416         1.150118
 H         2.591369        -2.078654        -0.285630
 H         4.066554        -1.317100         1.854465
 H         4.312248         1.789104        -0.535320
 H         1.961428         1.657006        -1.680698
 H         2.838477         0.022805        -2.025997
 H         3.218234         1.488715         1.982610
