19
Iteration:  4473charge 0 multiplicity 1
 C         0.072777        -0.243365        -0.702522
 C         1.532925        -0.021067        -0.108419
 C         2.287496        -1.362524         0.388765
 C         3.514355        -0.709574         0.970649
 O         4.316494        -0.309567        -0.137222
 C         3.622727         1.018938        -0.252856
 C         2.459155         0.799842        -1.091556
 C         3.055389         0.707877         1.201129
 O         1.602153         0.778819         1.080434
 H        -0.625805        -0.092924         0.176699
 H        -0.006338         0.519052        -1.450759
 H        -0.161276        -1.252566        -1.045997
 H         1.777374        -1.928439         1.182149
 H         2.605489        -1.976599        -0.465561
 H         4.120478        -1.316887         1.598940
 H         4.350873         1.781367        -0.598467
 H         2.045230         1.751698        -1.302829
 H         2.639598         0.203493        -1.956273
 H         3.329471         1.295297         2.074783
