19
Iteration:  3142charge 0 multiplicity 1
 C         0.135790        -0.318306        -0.664067
 C         1.560023        -0.109514        -0.152137
 C         2.265168        -1.259633         0.463287
 C         3.459959        -0.681285         0.999456
 O         4.299869        -0.310724        -0.151572
 C         3.635406         1.004990        -0.283955
 C         2.427313         0.755673        -1.163425
 C         3.027075         0.795047         1.188525
 O         1.627649         0.786099         1.102612
 H        -0.457029        -1.061607        -0.085906
 H        -0.268041         0.641729        -0.596056
 H         0.200964        -0.685538        -1.718977
 H         1.639093        -1.694683         1.275211
 H         2.537915        -2.092145        -0.188481
 H         4.107451        -1.237962         1.629206
 H         4.452240         1.790083        -0.430605
 H         1.934332         1.652573        -1.402385
 H         2.634498         0.190636        -2.034459
 H         3.559069         1.420784         1.849480
