19
Iteration:   962charge 0 multiplicity 1
 C         0.164392        -0.423322        -0.620281
 C         1.495221        -0.040364        -0.106233
 C         2.335557        -1.389340         0.480220
 C         3.597425        -0.711460         1.011368
 O         4.339823        -0.277108        -0.219499
 C         3.596397         1.010601        -0.308990
 C         2.297509         0.849095        -1.068744
 C         3.075958         0.840902         1.161902
 O         1.577156         0.808810         1.053998
 H        -0.351969        -1.149360         0.080663
 H        -0.476473         0.407147        -1.063547
 H         0.439794        -0.857004        -1.620495
 H         1.696951        -1.795439         1.224741
 H         2.330849        -2.134637        -0.415291
 H         4.214971        -1.312929         1.584054
 H         4.315575         1.879208        -0.604643
 H         1.816284         1.830184        -1.073756
 H         2.548532         0.417309        -2.039592
 H         3.356905         1.351334         2.149661
