19
Iteration:  3539
 C         0.045009        -0.166712        -0.437539
 C         1.490441        -0.040787        -0.138163
 C         2.319932        -1.321886         0.237447
 C         3.491256        -0.704608         0.944105
 O         4.534752        -0.152321         0.035275
 C         3.627423         0.918448        -0.268088
 C         2.416722         0.597113        -1.112108
 C         2.978012         0.731566         1.074320
 O         1.544252         0.765294         0.988998
 H        -0.524369        -0.195189         0.542726
 H        -0.153660         0.775643        -1.004977
 H        -0.167743        -1.024298        -1.051447
 H         1.776485        -2.046048         0.834559
 H         2.643453        -1.892666        -0.664813
 H         4.016080        -1.220662         1.807627
 H         4.190837         1.811622        -0.598370
 H         2.051155         1.494939        -1.635972
 H         2.650430        -0.137242        -2.063502
 H         3.144578         1.245128         2.013899
