19
Iteration:  4892
 C         0.101978        -0.191909        -0.560536
 C         1.544993        -0.096838        -0.215219
 C         2.259627        -1.337440         0.456431
 C         3.502927        -0.683337         1.078008
 O         4.349874        -0.347103        -0.056412
 C         3.626977         0.970183        -0.304282
 C         2.466463         0.711481        -1.192490
 C         3.014267         0.793863         1.186060
 O         1.594700         0.831382         0.947890
 H        -0.420318         0.406904         0.177613
 H         0.001628         0.072033        -1.645481
 H        -0.148995        -1.250064        -0.521094
 H         1.464537        -1.684799         1.174855
 H         2.617501        -2.087739        -0.261124
 H         4.069111        -1.329174         1.833715
 H         4.373513         1.766413        -0.508260
 H         1.946132         1.678975        -1.676702
 H         2.861417        -0.001452        -2.017161
 H         3.227797         1.461318         1.967718
