19
Iteration:   969
 C         0.155062        -0.458675        -0.681276
 C         1.546988        -0.029962        -0.053178
 C         2.282301        -1.334806         0.474585
 C         3.593443        -0.632493         0.949868
 O         4.256321        -0.293113        -0.243832
 C         3.687071         1.009807        -0.272234
 C         2.379185         0.869271        -1.028377
 C         3.076299         0.814588         1.148272
 O         1.574392         0.756255         1.067622
 H        -0.336731        -1.045070         0.036646
 H        -0.594190         0.295859        -0.918710
 H         0.361098        -1.105699        -1.533124
 H         1.558327        -1.563114         1.307634
 H         2.552511        -2.142842        -0.169986
 H         4.312874        -1.331607         1.554085
 H         4.203223         1.838799        -0.589624
 H         1.682153         1.742603        -1.164835
 H         2.390552         0.448441        -2.037979
 H         3.249474         1.375856         2.045678
