19
Iteration:   617
 C        -0.027296        -0.202939        -0.326751
 C         1.478835        -0.113146        -0.209266
 C         2.367146        -1.326212         0.195799
 C         3.459208        -0.658952         1.001403
 O         4.549325        -0.100732         0.034729
 C         3.645014         0.939653        -0.390140
 C         2.444641         0.605253        -1.249127
 C         2.904339         0.774430         1.140831
 O         1.593259         0.737595         1.032018
 H        -0.017953        -0.694467         0.738873
 H        -0.664046         0.700681        -0.186363
 H        -0.436692        -0.843907        -1.158012
 H         1.876587        -2.098718         0.875781
 H         2.763639        -1.880518        -0.629285
 H         4.058577        -1.367604         1.806118
 H         4.247113         1.776295        -0.597622
 H         2.017283         1.530972        -1.552447
 H         2.681540        -0.095738        -2.103614
 H         3.246758         1.345949         1.947290
