19
Iteration:  3173
 C         0.164584        -0.361863        -0.690274
 C         1.522433        -0.071180        -0.081245
 C         2.307348        -1.372852         0.487196
 C         3.504321        -0.700413         0.972750
 O         4.298777        -0.371622        -0.192163
 C         3.681508         0.955657        -0.249795
 C         2.397764         0.874173        -1.072819
 C         3.038057         0.846169         1.167318
 O         1.584310         0.859408         1.050227
 H        -0.678216        -0.821525        -0.071661
 H        -0.156256         0.491213        -1.252727
 H         0.349020        -1.221445        -1.328628
 H         1.630089        -1.780746         1.222006
 H         2.521881        -2.044111        -0.370863
 H         4.146057        -1.332116         1.601943
 H         4.419491         1.769870        -0.521588
 H         1.807879         1.875659        -1.127222
 H         2.415079         0.414915        -1.990435
 H         3.336184         1.581083         1.878917
