19
Iteration:  2434
 C         0.212907        -0.388319        -0.687881
 C         1.557378        -0.115975        -0.060097
 C         2.218474        -1.315744         0.499425
 C         3.540947        -0.625105         0.920926
 O         4.285762        -0.330254        -0.227483
 C         3.620285         0.969048        -0.303371
 C         2.307789         0.771117        -1.041407
 C         3.067440         0.811429         1.211972
 O         1.660932         0.873950         1.075137
 H        -0.446840        -0.997471        -0.020087
 H        -0.229940         0.550219        -1.091364
 H         0.637581        -0.888385        -1.557857
 H         1.565560        -1.655522         1.309570
 H         2.298806        -2.216489        -0.228146
 H         4.107757        -1.199465         1.613556
 H         4.312072         1.800301        -0.602428
 H         1.665752         1.698225        -1.333524
 H         2.490358         0.271887        -1.996555
 H         3.462376         1.435588         2.035106
