19
Iteration:    93
 C         0.128823        -0.370961        -0.687406
 C         1.546988        -0.139951        -0.099881
 C         2.230943        -1.314357         0.531337
 C         3.609871        -0.641727         0.954257
 O         4.322273        -0.303491        -0.266804
 C         3.629889         1.013058        -0.256806
 C         2.342790         0.802909        -1.095341
 C         3.029464         0.790252         1.193017
 O         1.621402         0.784608         1.078128
 H        -0.545430        -0.781126         0.045969
 H        -0.212594         0.611294        -1.054697
 H         0.263281        -1.013784        -1.565906
 H         1.746909        -1.685847         1.408976
 H         2.471417        -2.199429        -0.057932
 H         4.283160        -1.283541         1.644603
 H         4.272386         2.081339        -0.361612
 H         1.793701         1.779565        -1.197596
 H         2.680056         0.352011        -2.083075
 H         3.235413         1.541240         1.930858
