19
Iteration:  1048charge 0 multiplicity 1
 C        -0.068313        -0.171374        -0.368406
 C         1.472702        -0.102556        -0.252375
 C         2.432129        -1.408912         0.250242
 C         3.571073        -0.624286         0.987629
 O         4.474825        -0.084713         0.055798
 C         3.608632         0.961430        -0.296246
 C         2.395581         0.638169        -1.255336
 C         2.980274         0.774224         1.096683
 O         1.613852         0.672307         1.053013
 H        -0.407203        -0.662411         0.546666
 H        -0.428761         0.869561        -0.469462
 H        -0.530201        -0.806355        -1.121072
 H         1.961785        -2.123331         0.895437
 H         2.659349        -2.026073        -0.750328
 H         4.046370        -1.312983         1.740189
 H         4.011257         1.847022        -0.645253
 H         1.919405         1.549559        -1.739210
 H         2.674716        -0.118951        -2.009854
 H         3.289523         1.359781         2.032553
