19
Iteration:  4628charge 0 multiplicity 1
 C         0.126107        -0.213665        -0.455750
 C         1.553780        -0.050862        -0.240096
 C         2.276007        -1.339850         0.284963
 C         3.450578        -0.718784         0.994960
 O         4.414094        -0.289413        -0.034458
 C         3.650735         0.962898        -0.207939
 C         2.456082         0.788267        -1.188128
 C         2.968691         0.713532         1.159015
 O         1.604622         0.780465         0.956033
 H        -0.368116        -1.202038        -0.299221
 H        -0.405687         0.372332         0.316939
 H        -0.319192         0.058883        -1.453950
 H         1.659775        -1.773470         1.118365
 H         2.567226        -2.118994        -0.458707
 H         4.068435        -1.328571         1.759386
 H         4.287534         1.869478        -0.289524
 H         1.977111         1.820127        -1.358772
 H         2.568143         0.239639        -2.190247
 H         3.200262         1.279075         2.104954
