19
Iteration:  2527
 C        -0.130910        -0.135681        -0.363906
 C         1.445015        -0.183949        -0.211516
 C         2.273119        -1.355374         0.222834
 C         3.558017        -0.612587         0.940445
 O         4.569512        -0.134769         0.017606
 C         3.726166         0.947640        -0.298657
 C         2.507570         0.555642        -1.152063
 C         2.984967         0.790345         1.120157
 O         1.528520         0.708102         1.001996
 H        -0.396108        -0.311906         0.675034
 H        -0.450330         0.914015        -0.593118
 H        -0.590832        -0.822963        -1.135976
 H         1.703457        -2.033701         0.915361
 H         2.703796        -1.970919        -0.499224
 H         4.093800        -1.156269         1.841760
 H         4.259452         1.846068        -0.662476
 H         1.909961         1.416164        -1.460712
 H         2.771050         0.051194        -2.164927
 H         3.378763         1.593316         1.846742
