19
Iteration:  3107charge 0 multiplicity 1
 C        -0.079832        -0.203041        -0.463865
 C         1.410904        -0.065288        -0.177436
 C         2.280215        -1.281749         0.284813
 C         3.544024        -0.703197         0.927758
 O         4.617035        -0.122211         0.016727
 C         3.659079         0.904581        -0.243014
 C         2.481492         0.499322        -1.174299
 C         2.990311         0.685638         1.155579
 O         1.562846         0.853061         0.960257
 H        -0.685369        -0.876130         0.213838
 H        -0.471657         0.800719        -0.224721
 H        -0.402514        -0.298381        -1.469590
 H         1.801160        -1.859866         1.067760
 H         2.714656        -1.936982        -0.517329
 H         3.860541        -1.367639         1.759388
 H         4.089782         1.932285        -0.387444
 H         2.029298         1.417009        -1.636287
 H         2.713119        -0.128686        -1.941114
 H         3.361270         1.365369         1.951945
