19
Iteration:  3019charge 0 multiplicity 1
 C         0.218702        -0.416883        -0.730637
 C         1.532317        -0.056505        -0.077932
 C         2.109120        -1.244152         0.430531
 C         3.468696        -0.663852         0.880843
 O         4.330019        -0.338524        -0.210442
 C         3.645551         1.022574        -0.250752
 C         2.422905         0.714972        -1.102361
 C         3.070382         0.798543         1.172577
 O         1.663236         0.859848         1.234674
 H        -0.558641        -0.608829         0.017909
 H        -0.030379         0.397499        -1.494009
 H         0.603319        -1.217443        -1.300241
 H         1.553559        -1.620883         1.280777
 H         2.143937        -2.143237        -0.275470
 H         4.023387        -1.308975         1.669180
 H         4.379547         1.817013        -0.610800
 H         1.741799         1.514026        -1.422493
 H         2.687297         0.141871        -1.910190
 H         3.266315         1.608064         1.960061
