19
Iteration:  1407charge 0 multiplicity 1
 C         0.254275        -0.473531        -0.699437
 C         1.569039        -0.102805        -0.147505
 C         2.241606        -1.332730         0.563856
 C         3.512885        -0.639124         0.981145
 O         4.274454        -0.311952        -0.265386
 C         3.600156         1.025150        -0.292290
 C         2.337605         0.879862        -1.098150
 C         3.046546         0.864901         1.149469
 O         1.639976         0.765795         1.170356
 H        -0.496854        -0.998573        -0.005934
 H        -0.245197         0.518179        -0.913351
 H         0.036927        -1.079276        -1.609900
 H         1.478284        -1.659810         1.300875
 H         2.646784        -2.213630        -0.176624
 H         4.321856        -1.238782         1.599179
 H         4.259897         1.843146        -0.645989
 H         1.699795         1.703676        -1.262183
 H         2.648079         0.635747        -2.124834
 H         3.586444         1.340875         2.040061
