19
Iteration:  4494
 C        -0.020821        -0.227079        -0.570987
 C         1.501472        -0.042633        -0.158676
 C         2.202895        -1.286019         0.211110
 C         3.472621        -0.741239         0.894581
 O         4.642927        -0.265408        -0.056549
 C         3.691200         0.902700        -0.190055
 C         2.390473         0.684319        -1.100190
 C         2.972316         0.797684         1.193096
 O         1.576910         0.804985         1.082382
 H        -0.715448        -0.001639         0.321091
 H        -0.146279         0.381664        -1.456979
 H        -0.090366        -1.319539        -0.687514
 H         1.745790        -1.902262         0.992870
 H         2.464786        -1.801939        -0.723558
 H         4.001735        -1.282585         1.648308
 H         4.207460         1.870778        -0.390097
 H         1.892007         1.691683        -1.319108
 H         2.509339         0.059437        -1.966192
 H         3.413097         1.391704         1.987516
