19
Iteration:  2240charge 0 multiplicity 1
 C        -0.129189        -0.276859        -0.415699
 C         1.425016        -0.036547        -0.170632
 C         2.318984        -1.338473         0.328021
 C         3.622344        -0.713944         0.877222
 O         4.597837        -0.149101         0.011699
 C         3.644021         1.007895        -0.223656
 C         2.402802         0.561556        -1.233934
 C         2.967865         0.753645         1.130109
 O         1.570277         0.823205         1.014687
 H        -0.513141        -0.733380         0.526192
 H        -0.495423         0.706894        -0.695824
 H        -0.327947        -0.903312        -1.258162
 H         1.890255        -2.040812         0.973660
 H         2.544904        -1.871367        -0.675370
 H         4.085393        -1.339251         1.675546
 H         4.239373         1.891226        -0.520648
 H         2.125763         1.420120        -1.769587
 H         2.784375        -0.095543        -1.990683
 H         3.272829         1.471901         1.982870
