19
Iteration:   280charge 0 multiplicity 1
 C         0.060466        -0.371411        -0.569338
 C         1.565468        -0.085886        -0.187665
 C         2.324337        -1.354908         0.404903
 C         3.540658        -0.692570         0.922838
 O         4.331195        -0.295648        -0.215241
 C         3.676896         1.044256        -0.230634
 C         2.405728         0.824159        -1.106760
 C         3.019299         0.788385         1.242967
 O         1.581049         0.806917         1.069543
 H        -0.545607        -0.878535         0.179543
 H        -0.555226         0.506121        -0.809743
 H        -0.130035        -1.099868        -1.378135
 H         1.745640        -1.812710         1.243266
 H         2.613001        -2.130546        -0.312816
 H         4.239212        -1.263111         1.706084
 H         4.354978         1.981334        -0.420701
 H         1.821517         1.780572        -1.345527
 H         2.743707         0.162642        -2.075875
 H         3.317225         1.524638         1.990420
