19
Iteration:   826charge 0 multiplicity 1
 C         0.211449        -0.492755        -0.653170
 C         1.552612        -0.041753        -0.053146
 C         2.253207        -1.368217         0.519088
 C         3.532989        -0.725844         0.917456
 O         4.310794        -0.236623        -0.234460
 C         3.552081         1.036895        -0.278809
 C         2.332114         0.808205        -1.089192
 C         3.062071         0.760031         1.160098
 O         1.630504         0.885614         1.069844
 H        -0.442067        -1.023474         0.068818
 H        -0.351959         0.421287        -0.961294
 H         0.410680        -1.001639        -1.624986
 H         1.679232        -1.664545         1.455017
 H         2.414447        -2.064721        -0.228787
 H         4.289653        -1.383467         1.553905
 H         4.230533         1.810621        -0.402966
 H         1.720551         1.781806        -1.272203
 H         2.784196         0.614885        -2.116489
 H         3.555817         1.184537         2.057475
