19
Iteration:  4024charge 0 multiplicity 1
 C         0.176808        -0.397685        -0.718788
 C         1.546156        -0.092104        -0.158354
 C         2.182281        -1.374501         0.475908
 C         3.481009        -0.680102         0.975310
 O         4.279687        -0.333474        -0.265213
 C         3.741576         0.944376        -0.247583
 C         2.419863         0.867191        -1.074833
 C         3.060660         0.861919         1.245959
 O         1.580855         0.836105         1.096742
 H        -0.285337        -1.157789        -0.169984
 H        -0.446426         0.562310        -0.647136
 H         0.240546        -0.642313        -1.774164
 H         1.704028        -1.675771         1.389802
 H         2.283156        -2.187308        -0.236225
 H         4.219017        -1.263357         1.566666
 H         4.462068         1.817277        -0.366127
 H         1.922048         1.906322        -1.149622
 H         2.843274         0.390225        -1.880117
 H         3.298015         1.431315         2.151006
