19
Iteration:  1758charge 0 multiplicity 1
 C         0.003728        -0.226307        -0.390275
 C         1.528090        -0.148680        -0.123161
 C         2.399958        -1.408248         0.285596
 C         3.540243        -0.676093         0.973522
 O         4.516099        -0.144016        -0.055116
 C         3.587541         1.014120        -0.281307
 C         2.441589         0.651046        -1.213870
 C         2.925878         0.787766         1.135719
 O         1.551092         0.765161         0.980545
 H        -0.498072        -0.522299         0.545514
 H        -0.392622         0.763155        -0.703475
 H        -0.374802        -0.751724        -1.281551
 H         1.784247        -1.918302         0.943484
 H         2.737617        -2.152084        -0.586212
 H         4.061875        -1.309301         1.752775
 H         4.146866         1.858659        -0.511626
 H         1.755770         1.558499        -1.419880
 H         2.730458        -0.026067        -2.047829
 H         3.169532         1.413675         2.029769
