19
Iteration:  3533charge 0 multiplicity 1
 C         0.013582        -0.129587        -0.406344
 C         1.454328        -0.080833        -0.149363
 C         2.375104        -1.333670         0.175922
 C         3.505776        -0.715718         0.994334
 O         4.541063        -0.173931         0.060495
 C         3.621267         0.916745        -0.302573
 C         2.433187         0.585435        -1.227818
 C         2.934975         0.768458         1.067765
 O         1.537045         0.765598         1.052798
 H        -0.487365        -0.180187         0.539479
 H        -0.186651         0.798626        -0.924083
 H        -0.082512        -0.981657        -1.122373
 H         1.684225        -1.911532         0.843703
 H         2.895308        -1.896949        -0.607673
 H         3.922881        -1.298167         1.792051
 H         4.217433         1.837802        -0.323327
 H         1.910394         1.492223        -1.607489
 H         2.739864        -0.059886        -1.942009
 H         3.392233         1.376588         1.882626
