19
Iteration:   813charge 0 multiplicity 1
 C         0.162042        -0.385668        -0.602296
 C         1.509406        -0.138877        -0.131357
 C         2.269793        -1.320786         0.491375
 C         3.556983        -0.632217         0.878888
 O         4.362398        -0.264891        -0.283917
 C         3.642853         1.024451        -0.231636
 C         2.403874         0.816407        -1.074805
 C         2.998891         0.788051         1.207250
 O         1.596629         0.792811         1.063592
 H        -0.354469        -1.068799         0.111556
 H        -0.394365         0.506024        -0.721402
 H         0.187718        -1.014590        -1.481286
 H         1.709787        -1.749456         1.359097
 H         2.389220        -2.228573        -0.098898
 H         4.151540        -1.126778         1.737062
 H         4.113798         1.912562        -0.553991
 H         1.887231         1.796741        -1.299739
 H         2.516634         0.065404        -1.944606
 H         3.238719         1.421602         2.125130
