19
Iteration:  1561
 C         0.210871        -0.477892        -0.698748
 C         1.558877        -0.076318        -0.053682
 C         2.236164        -1.308365         0.522150
 C         3.600180        -0.678196         0.956099
 O         4.271653        -0.305342        -0.259295
 C         3.641834         1.064292        -0.271970
 C         2.289165         0.857867        -1.064216
 C         3.066816         0.842617         1.194676
 O         1.631764         0.767832         1.056641
 H        -0.478068        -1.143460        -0.089397
 H        -0.298891         0.437312        -1.026229
 H         0.471400        -1.112681        -1.565278
 H         1.546721        -1.637876         1.215489
 H         2.460973        -2.108227        -0.313454
 H         4.167232        -1.059893         1.842668
 H         4.322692         1.779428        -0.541803
 H         1.615344         1.659495        -1.032185
 H         2.290528         0.399626        -2.035249
 H         3.514865         1.473390         1.939111
