19
Iteration:  2692
 C         0.010038        -0.221476        -0.490426
 C         1.458311        -0.090867        -0.126118
 C         2.236036        -1.340201         0.312380
 C         3.483847        -0.671820         0.891307
 O         4.564721        -0.181502        -0.087536
 C         3.666674         0.953553        -0.246839
 C         2.411978         0.633829        -1.111815
 C         3.009803         0.775913         1.165073
 O         1.602461         0.780950         1.014516
 H        -0.659675        -0.352552         0.299522
 H        -0.496577         0.515288        -1.155396
 H        -0.015382        -1.133141        -1.102065
 H         1.744225        -1.829678         1.152933
 H         2.508777        -2.160933        -0.356376
 H         4.059773        -1.292716         1.631225
 H         4.116945         1.968473        -0.384072
 H         1.943107         1.639116        -1.454988
 H         2.681275         0.114825        -2.024970
 H         3.442651         1.249813         2.003083
