19
Iteration:   643
 C        -0.010981        -0.298789        -0.404288
 C         1.492561        -0.176241        -0.129839
 C         2.329026        -1.339846         0.280658
 C         3.575269        -0.681905         0.996302
 O         4.477838        -0.203703        -0.119427
 C         3.596523         1.075112        -0.263250
 C         2.437005         0.675296        -1.136750
 C         2.954748         0.764285         1.113572
 O         1.616381         0.804647         0.943630
 H        -0.449622        -0.757365         0.466381
 H        -0.437775         0.718099        -0.427242
 H        -0.247827        -0.806300        -1.350370
 H         1.753653        -1.832785         1.153393
 H         2.369081        -2.107193        -0.515249
 H         4.051229        -1.180651         1.863806
 H         4.301339         2.004618        -0.366668
 H         1.862147         1.517963        -1.558307
 H         2.874131         0.026508        -1.841642
 H         3.245555         1.362318         2.067362
