19
Iteration:   850
 C         0.126647        -0.479048        -0.665701
 C         1.488128        -0.019907        -0.103349
 C         2.255955        -1.274619         0.386404
 C         3.542671        -0.598798         0.954751
 O         4.385652        -0.304946        -0.219873
 C         3.629704         0.972239        -0.312346
 C         2.299069         0.782735        -1.037884
 C         3.043406         0.849631         1.209570
 O         1.664627         0.766455         1.148822
 H        -0.495928        -0.896860         0.123391
 H        -0.465987         0.412112        -1.108686
 H         0.320401        -1.219214        -1.487893
 H         1.659930        -1.726343         1.195103
 H         2.589376        -1.960262        -0.384773
 H         4.138487        -1.253609         1.631833
 H         4.274737         1.831786        -0.572611
 H         1.927457         1.775794        -1.383034
 H         2.543563         0.285059        -1.960095
 H         3.391168         1.356170         2.072993
