19
Iteration:  2818
 C        -0.107272        -0.121524        -0.379453
 C         1.464380        -0.091137        -0.228980
 C         2.399857        -1.412323         0.258774
 C         3.535162        -0.657427         1.006848
 O         4.575483        -0.275346         0.012444
 C         3.661680         1.015715        -0.257868
 C         2.436995         0.680074        -1.146783
 C         2.949190         0.803513         1.081155
 O         1.541594         0.693686         0.925710
 H        -0.527405        -0.427589         0.655017
 H        -0.404457         0.914703        -0.481423
 H        -0.535977        -0.902569        -1.082131
 H         1.704105        -1.999266         0.887081
 H         2.867985        -1.954768        -0.520892
 H         3.927048        -1.116112         1.900726
 H         4.288704         1.836684        -0.495464
 H         1.959026         1.529542        -1.566731
 H         2.812005         0.061991        -2.042200
 H         3.275082         1.530104         1.890953
