19
Iteration:  2323charge 0 multiplicity 1
 C         0.126724        -0.385192        -0.590630
 C         1.526416        -0.026667        -0.091138
 C         2.214268        -1.380018         0.450715
 C         3.559360        -0.693052         0.902879
 O         4.448035        -0.211295        -0.146481
 C         3.610678         0.991731        -0.308404
 C         2.366797         0.675997        -1.176501
 C         3.044462         0.757711         1.206612
 O         1.605435         0.879354         1.120859
 H        -0.624605        -0.883279        -0.008724
 H        -0.478070         0.502761        -0.949076
 H         0.325329        -1.052192        -1.493625
 H         1.464539        -1.686973         1.236543
 H         2.107515        -2.104619        -0.373750
 H         4.036058        -1.161252         1.759435
 H         4.254748         1.866074        -0.652562
 H         1.797926         1.687309        -1.405927
 H         2.620681         0.179311        -2.097593
 H         3.576216         1.455052         1.842167
