19
Iteration:   453charge 0 multiplicity 1
 C        -0.035064        -0.164515        -0.410141
 C         1.419586        -0.149436        -0.219022
 C         2.373928        -1.389369         0.314663
 C         3.577259        -0.637380         0.919193
 O         4.524750        -0.127085        -0.110483
 C         3.626360         0.969307        -0.201592
 C         2.428027         0.594364        -1.187828
 C         2.905484         0.777950         1.230242
 O         1.632752         0.729091         0.981129
 H        -0.542597        -0.517132         0.532692
 H        -0.506064         0.871885        -0.526091
 H        -0.394920        -0.700234        -1.331084
 H         1.800471        -2.119881         1.067281
 H         2.655106        -2.030051        -0.601422
 H         4.100493        -1.335076         1.720466
 H         4.140648         1.879783        -0.431118
 H         1.884735         1.468545        -1.453010
 H         2.861129         0.145244        -2.102689
 H         3.254654         1.467718         2.009021
