19
Iteration:  3164charge 0 multiplicity 1
 C         0.189836        -0.342053        -0.715390
 C         1.511345         0.025558        -0.092934
 C         2.278666        -1.381970         0.437503
 C         3.580526        -0.683439         1.056671
 O         4.257414        -0.431486        -0.252286
 C         3.630935         0.963005        -0.265997
 C         2.347725         0.833332        -1.057264
 C         3.038205         0.900703         1.257754
 O         1.590866         0.801340         1.016504
 H        -0.460256        -0.782467         0.063635
 H        -0.273250         0.495336        -1.129199
 H         0.503434        -1.047167        -1.531234
 H         1.663932        -1.931340         1.182275
 H         2.717130        -2.165360        -0.159505
 H         4.308138        -1.018574         1.771519
 H         4.499551         1.677563        -0.470617
 H         1.949078         1.797030        -1.175386
 H         2.542557         0.406881        -2.002269
 H         3.355479         1.639738         1.940923
