19
Iteration:   577charge 0 multiplicity 1
 C         0.002383        -0.361064        -0.576575
 C         1.504245        -0.089502        -0.144964
 C         2.336480        -1.331216         0.406248
 C         3.602322        -0.688281         0.986691
 O         4.409966        -0.202102        -0.189581
 C         3.642783         0.999651        -0.281017
 C         2.408048         0.687574        -1.075754
 C         3.041029         0.752405         1.174995
 O         1.587538         0.853953         1.060793
 H        -0.631085        -0.779962         0.205487
 H        -0.490244         0.512798        -0.977201
 H        -0.044519        -1.045238        -1.443058
 H         1.668811        -1.896140         1.188599
 H         2.494215        -2.003595        -0.417061
 H         4.083550        -1.189058         1.820082
 H         4.148034         1.938657        -0.737621
 H         1.829412         1.606324        -1.324834
 H         2.567315         0.147583        -2.008049
 H         3.287635         1.421844         2.043116
