19
Iteration:  1478
 C        -0.074421        -0.189723        -0.304229
 C         1.444942        -0.161943        -0.208079
 C         2.395875        -1.320467         0.235321
 C         3.571852        -0.618638         0.986616
 O         4.539123        -0.121152         0.018957
 C         3.599257         0.985045        -0.272444
 C         2.408093         0.662653        -1.201131
 C         2.975170         0.778999         1.131800
 O         1.577638         0.623631         0.938907
 H        -0.538732        -0.542480         0.591717
 H        -0.504260         0.792968        -0.530579
 H        -0.459684        -0.806277        -1.131421
 H         1.943614        -2.127834         0.903746
 H         2.906491        -1.800612        -0.550390
 H         4.007554        -1.178567         1.817231
 H         4.294255         1.815708        -0.643621
 H         2.074524         1.525756        -1.904078
 H         2.647586        -0.104663        -1.975014
 H         3.228856         1.527894         1.847406
