19
Iteration:   112charge 0 multiplicity 1
 C         0.122505        -0.372515        -0.687249
 C         1.495285        -0.057763        -0.155780
 C         2.356776        -1.359166         0.581766
 C         3.541281        -0.659372         0.961552
 O         4.238640        -0.309752        -0.297428
 C         3.634701         1.020137        -0.279476
 C         2.496732         0.869302        -1.126574
 C         3.042105         0.824922         1.200495
 O         1.567081         0.745501         1.120254
 H        -0.346847        -0.912767         0.159177
 H        -0.414376         0.441437        -1.108419
 H         0.233775        -1.074863        -1.506736
 H         1.702351        -1.551608         1.391209
 H         2.336066        -2.387214         0.053256
 H         4.339094        -0.985372         1.698722
 H         4.262820         1.807729        -0.487986
 H         1.813974         1.763719        -1.312979
 H         2.697813         0.286580        -1.988710
 H         3.520303         1.228964         2.159075
