19
Iteration:  2130
 C         0.126744        -0.489429        -0.696142
 C         1.478478        -0.048301        -0.118202
 C         2.260075        -1.212962         0.469207
 C         3.564409        -0.676284         0.990238
 O         4.379212        -0.308921        -0.277484
 C         3.634213         0.988676        -0.241125
 C         2.322885         0.758013        -1.067501
 C         3.130057         0.800271         1.197044
 O         1.588233         0.871434         1.132271
 H        -0.497964        -0.951535         0.051421
 H        -0.592472         0.218229        -1.148085
 H         0.253778        -1.157840        -1.592044
 H         1.682860        -1.643776         1.199881
 H         2.480150        -1.982989        -0.392697
 H         4.155855        -1.375320         1.579331
 H         4.261506         1.910123        -0.519629
 H         1.799363         1.674715        -1.274820
 H         2.607085         0.317925        -1.956389
 H         3.483524         1.329410         2.140130
