19
Iteration:  3081charge 0 multiplicity 1
 C         0.079817        -0.112540        -0.375706
 C         1.520753        -0.069486        -0.226916
 C         2.295220        -1.409559         0.223999
 C         3.480531        -0.633404         1.038070
 O         4.429355        -0.211285         0.036463
 C         3.655967         0.981824        -0.350286
 C         2.478441         0.590570        -1.181109
 C         2.933699         0.801842         1.128993
 O         1.600735         0.692350         0.999310
 H        -0.318952        -0.683688         0.427978
 H        -0.509698         0.867024        -0.383618
 H        -0.348582        -0.605320        -1.288117
 H         1.667988        -2.101890         0.806451
 H         2.883553        -1.825460        -0.587124
 H         3.764283        -1.020961         2.050796
 H         4.310923         1.757751        -0.603628
 H         1.899328         1.451550        -1.647368
 H         2.796106        -0.068008        -2.130050
 H         3.357476         1.512085         1.863441
