19
Iteration:   117charge 0 multiplicity 1
 C         0.131032        -0.378201        -0.655559
 C         1.529132        -0.060743        -0.120378
 C         2.294975        -1.375947         0.504621
 C         3.556147        -0.637855         0.985533
 O         4.262365        -0.335266        -0.273239
 C         3.638918         1.037265        -0.298608
 C         2.424612         0.879861        -1.120376
 C         3.044674         0.807889         1.225831
 O         1.592433         0.747814         1.075592
 H        -0.372881        -0.893949         0.156435
 H        -0.444514         0.500072        -1.065054
 H         0.383998        -1.082094        -1.482464
 H         1.673180        -1.564157         1.445430
 H         2.413439        -2.333195         0.077493
 H         4.291094        -1.065369         1.705895
 H         4.300922         2.099792        -0.533045
 H         1.882694         1.780040        -1.380534
 H         2.731352         0.163092        -1.973746
 H         3.339566         1.300503         2.117428
