19
Iteration:  4839
 C         0.097384        -0.323804        -0.690012
 C         1.461999        -0.029865        -0.113064
 C         2.255326        -1.256037         0.371548
 C         3.444203        -0.679213         0.988627
 O         4.429057        -0.344975        -0.049993
 C         3.666845         0.931540        -0.263582
 C         2.333483         0.636157        -1.163946
 C         3.085321         0.791393         1.173054
 O         1.667500         0.925287         1.056556
 H        -0.526870         0.578358        -0.544481
 H         0.355528        -0.544190        -1.705075
 H        -0.267563        -1.188921        -0.151176
 H         1.654146        -1.661837         1.225159
 H         2.339534        -1.895603        -0.501826
 H         3.980618        -1.139328         1.873469
 H         4.354627         1.714131        -0.561670
 H         1.982556         1.653564        -1.423665
 H         2.505513        -0.061278        -1.951721
 H         3.259310         1.195091         2.170248
