19
Iteration:   518
 C         0.052445        -0.390706        -0.629806
 C         1.491197        -0.083755        -0.076330
 C         2.336709        -1.292015         0.406889
 C         3.527563        -0.670951         0.919357
 O         4.451433        -0.324785        -0.181791
 C         3.618451         0.980717        -0.243483
 C         2.322878         0.788170        -1.105323
 C         3.015854         0.804348         1.164604
 O         1.623662         0.857082         1.092640
 H        -0.604704        -1.030281         0.042256
 H        -0.494207         0.538715        -0.984458
 H         0.338846        -1.060769        -1.479905
 H         1.987776        -1.922423         1.309869
 H         2.640861        -1.931894        -0.483824
 H         4.029559        -1.219299         1.820029
 H         4.241980         1.794372        -0.496840
 H         1.753296         1.655149        -1.194442
 H         2.499240         0.269744        -2.053043
 H         3.340741         1.536698         1.880707
