19
Iteration:  3561
 C        -0.040072        -0.292220        -0.597426
 C         1.482310        -0.137198        -0.183144
 C         2.208726        -1.369168         0.340658
 C         3.531926        -0.698752         0.926571
 O         4.468749        -0.229332        -0.100933
 C         3.671184         1.022379        -0.217749
 C         2.463842         0.685801        -1.139415
 C         3.035760         0.797582         1.214062
 O         1.628239         0.857677         1.068035
 H        -0.661688        -0.409807         0.353330
 H        -0.345423         0.555198        -1.242603
 H        -0.043817        -1.210230        -1.152015
 H         1.613393        -1.742404         1.168520
 H         2.468742        -2.251402        -0.288504
 H         4.113581        -1.420174         1.597914
 H         4.334753         1.884862        -0.296841
 H         1.816282         1.543806        -1.455235
 H         2.891361         0.268667        -2.208041
 H         3.334766         1.404790         2.091391
