19
Iteration:  1746charge 0 multiplicity 1
 C         0.120945        -0.249720        -0.501442
 C         1.520329        -0.123175        -0.204869
 C         2.315188        -1.413636         0.392382
 C         3.553563        -0.655151         0.943567
 O         4.428799        -0.188205        -0.086299
 C         3.570956         0.998235        -0.272436
 C         2.366145         0.692379        -1.156686
 C         2.981927         0.783819         1.134396
 O         1.569832         0.769611         1.042537
 H        -0.331324        -0.731412         0.394494
 H        -0.318904         0.734612        -0.580013
 H         0.027131        -1.061172        -1.218049
 H         1.868012        -2.051708         1.138288
 H         2.732056        -2.104815        -0.475848
 H         4.095384        -1.000662         1.850887
 H         4.102744         1.932252        -0.526294
 H         1.906566         1.712235        -1.517430
 H         2.683887         0.321631        -2.182288
 H         3.419464         1.327548         1.959620
