19
Iteration:  3909
 C         0.122315        -0.350460        -0.657186
 C         1.512373        -0.014388        -0.151372
 C         2.203530        -1.292581         0.439872
 C         3.524195        -0.697406         0.946266
 O         4.412067        -0.345091        -0.225337
 C         3.675849         1.020814        -0.215743
 C         2.470652         0.748176        -1.081813
 C         3.002292         0.769198         1.216376
 O         1.543884         0.838906         1.071768
 H        -0.489251        -0.406757         0.287042
 H        -0.103332         0.456199        -1.286812
 H         0.130952        -1.305696        -1.108315
 H         1.467612        -1.572566         1.250810
 H         2.425496        -1.982877        -0.412069
 H         4.030459        -1.510042         1.507319
 H         4.213145         1.927717        -0.424029
 H         1.937297         1.667797        -1.253658
 H         2.891890         0.145453        -2.017903
 H         3.379268         1.255072         2.119678
