19
Iteration:  4571charge 0 multiplicity 1
 C         0.119032        -0.217426        -0.711847
 C         1.452955        -0.028372        -0.055857
 C         2.195595        -1.373907         0.404586
 C         3.504347        -0.815279         0.977816
 O         4.482868        -0.266992        -0.126799
 C         3.602690         0.970461        -0.293105
 C         2.347916         0.804076        -1.136029
 C         3.060370         0.761075         1.162949
 O         1.621026         0.792144         1.130601
 H        -0.438171        -0.974876        -0.077851
 H        -0.356867         0.675588        -1.059406
 H         0.391786        -0.728786        -1.667349
 H         1.695506        -1.905905         1.223665
 H         2.525742        -2.162594        -0.267790
 H         4.131558        -1.259657         1.659423
 H         4.201900         1.888236        -0.394791
 H         1.952877         1.912135        -1.368561
 H         2.648601         0.320418        -2.101506
 H         3.502696         1.398048         1.980462
