19
Iteration:  4429charge 0 multiplicity 1
 C         0.091377        -0.259217        -0.631714
 C         1.466049        -0.022863        -0.109817
 C         2.276772        -1.303997         0.462689
 C         3.505668        -0.736671         0.868649
 O         4.423339        -0.320654        -0.142807
 C         3.726718         0.949076        -0.229818
 C         2.408345         0.806541        -1.117916
 C         2.988318         0.767769         1.200581
 O         1.600384         0.812466         1.043650
 H        -0.419860        -1.128381        -0.070959
 H        -0.513743         0.604328        -0.872447
 H         0.088804        -0.805468        -1.564132
 H         1.663821        -1.822231         1.213586
 H         2.445134        -2.006011        -0.385616
 H         3.864594        -1.349249         1.678759
 H         4.465446         1.804197        -0.356699
 H         1.873480         1.665383        -1.329716
 H         2.632104         0.326578        -2.027217
 H         3.279474         1.210989         2.153251
