19
Iteration:  4576charge 0 multiplicity 1
 C         0.171734        -0.248670        -0.748311
 C         1.484628        -0.041345        -0.062243
 C         2.173687        -1.319097         0.429962
 C         3.519919        -0.770232         0.970980
 O         4.486123        -0.286844        -0.130784
 C         3.583350         0.958417        -0.291529
 C         2.338460         0.826829        -1.077427
 C         3.079997         0.729323         1.128089
 O         1.596700         0.803836         1.161521
 H        -0.461502        -0.962360        -0.253276
 H        -0.622977         0.545900        -0.989554
 H         0.487666        -0.495972        -1.783947
 H         1.686609        -1.877383         1.258227
 H         2.244056        -2.105097        -0.375598
 H         4.248544        -1.314174         1.688914
 H         4.219714         1.799090        -0.635131
 H         1.883069         1.703827        -1.380706
 H         2.585364         0.310633        -2.006749
 H         3.498884         1.275411         1.964557
