19
Iteration:  4500charge 0 multiplicity 1
 C        -0.029701        -0.248581        -0.524325
 C         1.481244        -0.025718        -0.178471
 C         2.209622        -1.272925         0.196781
 C         3.457270        -0.720409         0.893785
 O         4.652585        -0.239744         0.020287
 C         3.647544         0.954418        -0.207537
 C         2.401786         0.670903        -1.114109
 C         3.018797         0.739144         1.184118
 O         1.616554         0.800549         1.057450
 H        -0.518990         0.056068         0.374789
 H        -0.342997         0.330886        -1.460221
 H        -0.459649        -1.256390        -0.773841
 H         1.733669        -1.975186         0.905204
 H         2.456752        -1.861561        -0.702909
 H         3.875807        -1.574775         1.549653
 H         4.221033         1.812067        -0.540743
 H         1.988765         1.701450        -1.414055
 H         2.484755         0.037608        -2.033249
 H         3.341520         1.371763         2.019096
