19
Iteration:  1822
 C         0.042706        -0.354596        -0.587571
 C         1.544545        -0.097305        -0.174580
 C         2.331039        -1.352605         0.431952
 C         3.550555        -0.615229         0.980371
 O         4.410854        -0.285581        -0.204169
 C         3.590085         1.032800        -0.270785
 C         2.388328         0.704508        -1.061158
 C         3.018161         0.799107         1.226291
 O         1.604241         0.803832         1.011844
 H        -0.400380        -0.878161         0.282836
 H        -0.506812         0.549709        -0.873009
 H         0.062111        -1.046042        -1.444464
 H         1.665814        -1.800386         1.233066
 H         2.628296        -2.084446        -0.474662
 H         4.120551        -1.118239         1.807612
 H         4.159081         2.002954        -0.575801
 H         1.734133         1.661275        -1.209751
 H         2.670497         0.310498        -2.072358
 H         3.357043         1.483723         2.030381
