19
Iteration:  3825
 C        -0.005597        -0.181213        -0.417158
 C         1.513371        -0.042377        -0.287071
 C         2.214806        -1.384046         0.261188
 C         3.435625        -0.677216         0.974473
 O         4.492352        -0.154535         0.038921
 C         3.670643         0.975589        -0.149925
 C         2.490496         0.567187        -1.252955
 C         2.991981         0.759785         1.121474
 O         1.629930         0.787405         0.999276
 H        -0.283041        -0.918003         0.406349
 H        -0.431057         0.799450        -0.079297
 H        -0.534674        -0.472461        -1.423002
 H         1.628440        -2.059763         0.855397
 H         2.383155        -1.974374        -0.634709
 H         4.078666        -1.155847         1.724691
 H         4.259519         1.795641        -0.518187
 H         2.101253         1.354261        -1.858155
 H         3.026549        -0.109454        -1.993436
 H         3.396264         1.181411         2.074241
