19
Iteration:  2311
 C         0.100366        -0.430709        -0.741858
 C         1.497442        -0.138185        -0.072334
 C         2.198456        -1.279525         0.506354
 C         3.533179        -0.707694         0.892731
 O         4.348060        -0.276732        -0.198697
 C         3.645337         1.017649        -0.297738
 C         2.374252         0.746867        -1.015274
 C         3.080497         0.860748         1.168233
 O         1.682651         0.875387         1.100400
 H        -0.379897        -0.983419         0.027783
 H        -0.457707         0.455105        -1.128291
 H         0.257346        -1.127160        -1.622007
 H         1.773820        -1.654463         1.491732
 H         2.339137        -2.119488        -0.136572
 H         4.188628        -1.330281         1.525054
 H         4.333022         1.850352        -0.554301
 H         1.713357         1.648597        -1.214575
 H         2.524820         0.244305        -1.976606
 H         3.377587         1.387423         2.043215
