19
Iteration:   331
 C        -0.080539        -0.156426        -0.435226
 C         1.392977        -0.160765        -0.049217
 C         2.371093        -1.358663         0.159025
 C         3.595915        -0.723640         0.888279
 O         4.571577        -0.072105         0.064971
 C         3.604424         0.965097        -0.282749
 C         2.396439         0.550180        -1.208464
 C         3.026317         0.754066         1.113905
 O         1.556189         0.785125         1.052804
 H        -0.893198        -0.524185         0.207170
 H        -0.390300         0.941531        -0.533476
 H        -0.429778        -0.717078        -1.349512
 H         2.176662        -2.183052         0.889587
 H         2.773287        -1.895137        -0.848999
 H         4.164021        -1.251889         1.709035
 H         4.007804         1.858046        -0.553772
 H         1.974870         1.473925        -1.499885
 H         2.816791        -0.069206        -1.951055
 H         3.393880         1.297551         1.989907
