19
Iteration:  3084
 C         0.045063        -0.103259        -0.375436
 C         1.517301        -0.083750        -0.223942
 C         2.306644        -1.406119         0.209800
 C         3.496308        -0.653173         1.029080
 O         4.446293        -0.214232         0.064405
 C         3.637830         0.985627        -0.334395
 C         2.466302         0.572969        -1.224719
 C         2.915199         0.830456         1.141836
 O         1.614297         0.699885         1.003926
 H        -0.359829        -0.738244         0.448281
 H        -0.576218         0.859552        -0.352140
 H        -0.315407        -0.513708        -1.288609
 H         1.713228        -2.067407         0.812765
 H         2.828693        -1.855546        -0.707353
 H         3.875192        -1.066636         2.036415
 H         4.378063         1.763990        -0.630070
 H         1.955357         1.449154        -1.788046
 H         2.805611        -0.057575        -2.022200
 H         3.425954         1.514087         1.897831
