19
Iteration:  2089charge 0 multiplicity 1
 C        -0.059835        -0.175950        -0.404751
 C         1.537964        -0.207215        -0.240177
 C         2.307424        -1.393813         0.261163
 C         3.494291        -0.654329         0.990026
 O         4.520331        -0.097398        -0.018672
 C         3.601385         1.042674        -0.296818
 C         2.408727         0.597705        -1.219841
 C         2.999049         0.776244         1.158635
 O         1.617343         0.704989         1.024209
 H        -0.350789        -0.414270         0.626031
 H        -0.161905         0.862601        -0.369741
 H        -0.431841        -0.792833        -1.171919
 H         1.769980        -1.991045         1.009204
 H         2.817370        -2.015801        -0.509181
 H         3.896449        -1.239392         1.831600
 H         4.191719         1.861104        -0.597246
 H         1.813696         1.465569        -1.518498
 H         2.717525        -0.037871        -2.128184
 H         3.384522         1.530027         1.921580
