19
Iteration:  1351charge 0 multiplicity 1
 C         0.001686        -0.247956        -0.340471
 C         1.462694        -0.075517        -0.145449
 C         2.262203        -1.366372         0.218476
 C         3.503811        -0.625425         0.906827
 O         4.558160        -0.069895         0.030902
 C         3.612609         1.018247        -0.274684
 C         2.435188         0.577874        -1.211529
 C         2.980919         0.756393         1.100374
 O         1.618621         0.698935         1.012196
 H        -0.555650        -0.786339         0.480269
 H        -0.606419         0.686441        -0.570346
 H        -0.191108        -0.865215        -1.263022
 H         1.656519        -2.022266         0.944907
 H         2.598542        -2.027914        -0.599821
 H         4.126089        -1.210627         1.651392
 H         4.209146         1.979117        -0.504641
 H         1.897833         1.361730        -1.715830
 H         2.814817        -0.191652        -1.864481
 H         3.432437         1.345568         1.875765
