19
Iteration:  2229
 C        -0.069813        -0.222464        -0.343867
 C         1.459592        -0.098957        -0.169100
 C         2.354683        -1.298736         0.180094
 C         3.561853        -0.772377         0.861211
 O         4.590504        -0.058890         0.074469
 C         3.648299         0.911122        -0.277275
 C         2.444405         0.526303        -1.253197
 C         2.964260         0.831849         1.173920
 O         1.515540         0.795299         1.019284
 H        -0.697429        -0.553775         0.522010
 H        -0.487954         0.780837        -0.441227
 H        -0.317874        -0.840351        -1.180254
 H         1.843127        -1.725696         0.979677
 H         2.564526        -2.117572        -0.636828
 H         4.104494        -1.411573         1.582064
 H         4.145801         1.838374        -0.647480
 H         2.010338         1.334303        -1.766740
 H         2.704885        -0.298021        -1.865287
 H         3.393855         1.470610         2.058411
