19
Iteration:   369charge 0 multiplicity 1
 C         0.124806        -0.357391        -0.515951
 C         1.576885        -0.096237        -0.133203
 C         2.297183        -1.337815         0.367790
 C         3.520182        -0.665291         0.919025
 O         4.335995        -0.236129        -0.163968
 C         3.604398         1.037043        -0.272138
 C         2.429592         0.806860        -1.155887
 C         3.067792         0.752235         1.204638
 O         1.547578         0.716664         1.069318
 H        -0.385140        -0.883112         0.309940
 H        -0.268097         0.615090        -0.697763
 H         0.122239        -0.905078        -1.440708
 H         1.666514        -1.614417         1.228915
 H         2.334144        -2.092277        -0.315850
 H         4.014753        -1.354425         1.638275
 H         4.338327         1.932987        -0.439311
 H         1.800901         1.772566        -1.308046
 H         2.693149         0.451560        -2.241105
 H         3.409230         1.485891         1.971114
