19
Iteration:  4651
 C        -0.109946        -0.180842        -0.494650
 C         1.413965        -0.060747        -0.186587
 C         2.242169        -1.334588         0.162714
 C         3.525362        -0.718598         0.928665
 O         4.581285        -0.226321         0.077236
 C         3.713147         0.949034        -0.249837
 C         2.477557         0.640159        -1.124551
 C         3.019984         0.786494         1.161668
 O         1.583278         0.761307         1.020998
 H        -0.604252        -1.169861        -0.474628
 H        -0.622340         0.315746         0.410123
 H        -0.526748         0.264064        -1.439600
 H         1.683526        -2.079539         0.804081
 H         2.631644        -1.837109        -0.769311
 H         4.072737        -1.196261         1.843334
 H         4.372895         1.771392        -0.601064
 H         2.140792         1.651493        -1.437788
 H         2.812361         0.057397        -2.069100
 H         3.339943         1.464152         1.961701
