19
Iteration:  2060charge 0 multiplicity 1
 C        -0.102830        -0.192263        -0.436395
 C         1.458220        -0.066076        -0.135652
 C         2.388141        -1.364925         0.258382
 C         3.589247        -0.729567         0.869463
 O         4.553831        -0.077611        -0.003674
 C         3.622645         1.002981        -0.300893
 C         2.469800         0.514713        -1.185634
 C         2.948389         0.745635         1.164632
 O         1.516675         0.803122         1.062445
 H        -0.334434        -0.667169         0.583032
 H        -0.671221         0.805894        -0.565310
 H        -0.308796        -0.814753        -1.384027
 H         2.003152        -2.117035         1.110859
 H         2.662867        -1.878516        -0.599865
 H         4.062950        -1.405752         1.614492
 H         4.332828         1.822600        -0.664548
 H         1.969765         1.405102        -1.626151
 H         2.636447        -0.300498        -1.996984
 H         3.351173         1.397981         1.947945
