19
Iteration:  1131charge 0 multiplicity 1
 C         0.151187        -0.443614        -0.651603
 C         1.536717        -0.105197        -0.079230
 C         2.306358        -1.402841         0.407375
 C         3.528691        -0.645485         0.966907
 O         4.274095        -0.274185        -0.221627
 C         3.679544         0.999545        -0.320013
 C         2.361922         0.835019        -1.058433
 C         3.021741         0.840267         1.205109
 O         1.595051         0.837556         1.117911
 H        -0.573092        -0.919083         0.010157
 H        -0.395803         0.350159        -1.223443
 H         0.481220        -1.126952        -1.480930
 H         1.904241        -1.840265         1.397200
 H         2.567516        -2.169294        -0.218036
 H         4.253084        -1.239810         1.605347
 H         4.187588         1.968182        -0.731645
 H         1.924018         1.838122        -1.042163
 H         2.465133         0.456261        -2.065665
 H         3.554340         1.511921         1.933144
