19
Iteration:  3255charge 0 multiplicity 1
 C         0.006675        -0.190500        -0.460200
 C         1.512978        -0.123530        -0.165192
 C         2.369667        -1.346540         0.315682
 C         3.524271        -0.672213         1.005965
 O         4.461641        -0.206558         0.065571
 C         3.642205         0.970234        -0.277398
 C         2.390474         0.690031        -1.241152
 C         2.996506         0.771062         1.109184
 O         1.598196         0.697121         0.972687
 H        -0.524608        -0.566072         0.382114
 H        -0.310212         0.909917        -0.483883
 H        -0.288122        -0.484916        -1.461403
 H         1.660504        -1.992447         0.912302
 H         2.544859        -2.001325        -0.564479
 H         4.042376        -1.223094         1.828012
 H         4.221085         1.798241        -0.670319
 H         1.940923         1.600643        -1.473008
 H         2.567297         0.137564        -2.233392
 H         3.195816         1.557984         1.877716
