19
Iteration:   765
 C         0.016615        -0.195402        -0.357652
 C         1.466811        -0.123903        -0.097148
 C         2.381587        -1.370244         0.148825
 C         3.545550        -0.685279         0.935540
 O         4.568522        -0.093267         0.048433
 C         3.653903         0.954235        -0.284229
 C         2.327600         0.523186        -1.192945
 C         2.977760         0.813538         1.109819
 O         1.530449         0.797914         0.986298
 H        -0.456669        -0.688657         0.453964
 H        -0.380617         0.832730        -0.347864
 H        -0.255602        -0.807830        -1.205734
 H         1.918057        -2.156221         0.707086
 H         2.676952        -2.002968        -0.761322
 H         3.977083        -1.280454         1.639120
 H         3.933924         2.028657        -0.637943
 H         1.829092         1.418207        -1.445703
 H         2.699448        -0.064809        -1.940239
 H         3.356362         1.233256         2.002366
