19
Iteration:  4692
 C         0.065756        -0.165803        -0.652262
 C         1.537450        -0.101692        -0.191869
 C         2.174277        -1.337656         0.343906
 C         3.583722        -0.672556         0.979210
 O         4.392176        -0.253977        -0.109463
 C         3.656888         0.977252        -0.224417
 C         2.469170         0.665092        -1.059671
 C         2.988886         0.802920         1.205250
 O         1.625398         0.737427         1.036268
 H        -0.149927        -1.134972        -1.069364
 H        -0.375718        -0.215379         0.327450
 H        -0.121742         0.794085        -1.126411
 H         1.531264        -1.879191         1.039634
 H         2.329572        -2.114954        -0.419984
 H         3.966563        -1.418257         1.634287
 H         4.199093         1.919563        -0.436454
 H         1.922903         1.610336        -1.475649
 H         2.644740         0.093199        -2.047172
 H         3.376347         1.372632         2.106885
