19
Iteration:  2796
 C         0.056791        -0.112111        -0.362642
 C         1.536384        -0.189739        -0.187485
 C         2.334299        -1.402318         0.228743
 C         3.465758        -0.672657         0.960965
 O         4.444834        -0.158099         0.049837
 C         3.606574         0.975367        -0.291363
 C         2.427709         0.541127        -1.230515
 C         2.945384         0.784257         1.196430
 O         1.591331         0.801459         0.947333
 H        -0.552932        -0.747418         0.395413
 H        -0.078186         0.926549        -0.146428
 H        -0.222892        -0.425220        -1.399133
 H         1.866616        -2.145806         0.898113
 H         2.826601        -1.829684        -0.610594
 H         4.036206        -1.205248         1.689970
 H         4.157737         1.783605        -0.724004
 H         2.027804         1.496019        -1.425420
 H         2.762639         0.122672        -2.232718
 H         3.434741         1.416417         1.996048
