19
Iteration:   246charge 0 multiplicity 1
 C         0.183418        -0.488913        -0.750015
 C         1.466593         0.011484        -0.020345
 C         2.213036        -1.275913         0.410339
 C         3.512014        -0.717672         0.918883
 O         4.384659        -0.320733        -0.167802
 C         3.649510         1.008697        -0.369345
 C         2.296566         0.857589        -1.079796
 C         3.083094         0.788096         1.197310
 O         1.646704         0.818177         1.220338
 H        -0.407123        -1.055526        -0.067685
 H        -0.333314         0.392012        -1.197772
 H         0.596110        -1.100043        -1.581643
 H         1.729489        -1.737862         1.291051
 H         2.504911        -2.091318        -0.296204
 H         4.144468        -1.349172         1.743808
 H         4.261115         1.933978        -0.571773
 H         1.653792         1.783382        -1.267550
 H         2.193365         0.332630        -2.172348
 H         3.618384         1.508437         1.767128
