19
Iteration:  2792charge 0 multiplicity 1
 C         0.070650        -0.144865        -0.397216
 C         1.524622        -0.152618        -0.184572
 C         2.319912        -1.373427         0.258517
 C         3.500107        -0.686094         0.963257
 O         4.457486        -0.171428         0.051406
 C         3.544361         0.993825        -0.312012
 C         2.447073         0.538739        -1.205944
 C         2.976197         0.768183         1.186031
 O         1.601242         0.803267         0.968943
 H        -0.597714        -0.753816         0.249601
 H        -0.207836         0.910520        -0.143296
 H        -0.202758        -0.434611        -1.377360
 H         1.708700        -2.065487         0.815087
 H         2.825562        -1.887260        -0.625139
 H         3.975271        -1.350921         1.725067
 H         4.174428         1.840180        -0.761171
 H         1.879072         1.555469        -1.544026
 H         2.776406         0.097294        -2.135903
 H         3.449638         1.427240         1.942821
