19
Iteration:  4035
 C         0.146372        -0.420374        -0.723323
 C         1.522981        -0.076609        -0.139307
 C         2.225010        -1.318088         0.410382
 C         3.474791        -0.672611         1.006131
 O         4.252657        -0.359454        -0.217992
 C         3.663590         1.021302        -0.196234
 C         2.436432         0.804783        -1.071420
 C         3.098673         0.780064         1.197092
 O         1.672326         0.868998         1.117013
 H        -0.477004        -1.111815        -0.228429
 H        -0.425469         0.543036        -0.925732
 H         0.375273        -0.850926        -1.692730
 H         1.458581        -1.798204         1.025873
 H         2.618209        -2.037460        -0.305121
 H         4.025518        -1.149711         1.859473
 H         4.423171         1.827471        -0.463084
 H         1.824080         1.795344        -1.187078
 H         2.403983         0.543511        -2.086117
 H         3.473784         1.436582         1.986075
