19
Iteration:  3843
 C         0.017221        -0.198176        -0.478447
 C         1.508252        -0.082843        -0.151098
 C         2.275617        -1.313003         0.339795
 C         3.512141        -0.714418         0.997725
 O         4.449401        -0.291696        -0.051678
 C         3.632793         0.985877        -0.269117
 C         2.507452         0.739396        -1.216892
 C         2.969563         0.760652         1.186260
 O         1.595691         0.774725         0.961984
 H        -0.518519        -0.977128         0.084748
 H        -0.465496         0.728734        -0.639001
 H        -0.170804        -0.611036        -1.428733
 H         1.613582        -1.634787         1.200995
 H         2.674119        -2.159360        -0.281657
 H         4.006365        -1.392120         1.744572
 H         4.241873         1.885661        -0.372424
 H         2.065662         1.680184        -1.583019
 H         2.841923         0.033666        -2.076603
 H         3.230470         1.361612         2.049964
