19
Iteration:  2571
 C         0.143056        -0.417182        -0.665453
 C         1.512848        -0.039252        -0.107532
 C         2.216514        -1.274413         0.437065
 C         3.563405        -0.659843         0.961666
 O         4.312170        -0.315366        -0.234558
 C         3.585719         0.968888        -0.244543
 C         2.386366         0.728473        -1.096141
 C         3.056690         0.807674         1.200673
 O         1.681311         0.881620         1.132291
 H        -0.491432        -0.918289         0.032282
 H        -0.426792         0.410931        -1.145146
 H         0.309147        -1.054478        -1.592654
 H         1.615268        -1.740408         1.249892
 H         2.273873        -1.967321        -0.374355
 H         4.206223        -1.323939         1.656688
 H         4.248534         1.813828        -0.545503
 H         2.008419         1.705950        -1.462308
 H         2.677466         0.091189        -1.984895
 H         3.422512         1.329293         2.140810
