19
Iteration:  3228charge 0 multiplicity 1
 C        -0.018103        -0.128712        -0.403586
 C         1.488086        -0.150201        -0.180536
 C         2.367637        -1.430518         0.223983
 C         3.507601        -0.616992         0.923234
 O         4.506498        -0.179350        -0.001676
 C         3.613250         0.989544        -0.224116
 C         2.558341         0.534784        -1.193418
 C         2.950782         0.733969         1.180006
 O         1.525026         0.820437         0.996532
 H        -0.454176        -0.162545         0.646114
 H        -0.357889         0.798181        -0.790512
 H        -0.503066        -0.844030        -1.102680
 H         1.732334        -2.128924         0.766200
 H         2.682767        -1.861413        -0.727917
 H         3.953684        -1.134285         1.768780
 H         4.074197         1.938218        -0.627723
 H         2.047988         1.508576        -1.609991
 H         2.779062        -0.105633        -1.992245
 H         3.248721         1.325083         2.011682
