19
Iteration:  1557
 C         0.204659        -0.485311        -0.712075
 C         1.548714        -0.072833        -0.055408
 C         2.280415        -1.291939         0.500095
 C         3.595907        -0.687085         0.952266
 O         4.268912        -0.294113        -0.253285
 C         3.640625         1.026214        -0.302479
 C         2.308034         0.833706        -1.026633
 C         3.061881         0.831223         1.171209
 O         1.623449         0.782451         1.091267
 H        -0.511063        -1.082346        -0.123535
 H        -0.415091         0.372441        -1.031102
 H         0.453773        -1.094769        -1.587210
 H         1.519828        -1.566919         1.338373
 H         2.404811        -2.027324        -0.243299
 H         4.174730        -1.078160         1.748993
 H         4.449668         1.872480        -0.515400
 H         1.567313         1.783596        -1.121221
 H         2.346963         0.413069        -2.090189
 H         3.364452         1.519229         2.056434
