19
Iteration:  2654
 C        -0.035936        -0.077526        -0.371492
 C         1.437227        -0.128437        -0.209331
 C         2.324754        -1.360918         0.210391
 C         3.496537        -0.640717         0.933212
 O         4.589026        -0.133407        -0.013744
 C         3.617208         0.968345        -0.244788
 C         2.460742         0.488294        -1.191798
 C         2.962891         0.783570         1.143887
 O         1.578065         0.727171         1.034909
 H        -0.548602        -0.484302         0.577150
 H        -0.277288         0.964995        -0.501560
 H        -0.236680        -0.768005        -1.183268
 H         1.848996        -1.974823         1.026789
 H         2.591719        -1.988863        -0.665195
 H         3.842781        -1.367366         1.634821
 H         4.086381         1.856419        -0.658138
 H         2.111401         1.373099        -1.648072
 H         2.836499        -0.211015        -1.994161
 H         3.229422         1.483894         1.996916
