19
Iteration:   571
 C         0.048678        -0.398772        -0.590307
 C         1.535205        -0.076522        -0.126186
 C         2.303849        -1.335388         0.449191
 C         3.598617        -0.676929         0.965751
 O         4.357577        -0.225467        -0.223495
 C         3.624510         1.016299        -0.260928
 C         2.417209         0.723972        -1.095945
 C         3.061315         0.744448         1.189161
 O         1.555474         0.839797         1.066551
 H        -0.667522        -0.715072         0.181177
 H        -0.344566         0.575254        -0.998797
 H         0.069460        -1.022956        -1.491503
 H         1.642529        -1.689081         1.157251
 H         2.494806        -2.173600        -0.317215
 H         4.323125        -1.008377         1.759857
 H         4.178952         1.813146        -0.703876
 H         1.873707         1.697196        -1.307691
 H         2.659331         0.147136        -2.003758
 H         3.403116         1.357002         2.031038
