19
Iteration:  1938charge 0 multiplicity 1
 C        -0.107033        -0.150599        -0.339479
 C         1.510020        -0.148379        -0.155625
 C         2.406912        -1.432171         0.191957
 C         3.553596        -0.648940         0.984196
 O         4.503701        -0.089817        -0.003075
 C         3.642415         0.993211        -0.274491
 C         2.408962         0.603470        -1.169895
 C         2.964256         0.795710         1.197221
 O         1.585993         0.703953         0.906848
 H        -0.506156        -0.617450         0.641344
 H        -0.487740         0.851683        -0.605180
 H        -0.379575        -0.757050        -1.224766
 H         1.782694        -2.126275         0.860576
 H         2.735757        -2.024629        -0.623633
 H         4.091075        -1.097696         1.827445
 H         4.177999         1.823429        -0.781910
 H         1.858826         1.392426        -1.678277
 H         2.867572        -0.088701        -1.973115
 H         3.193965         1.446926         2.054327
