19
Iteration:  1659
 C        -0.005986        -0.264348        -0.448090
 C         1.461939        -0.122620        -0.195553
 C         2.392264        -1.326018         0.337067
 C         3.548939        -0.614996         1.023831
 O         4.487065        -0.175864        -0.158244
 C         3.646675         0.993771        -0.260149
 C         2.433545         0.639733        -1.126761
 C         2.994319         0.761431         1.101755
 O         1.517571         0.718438         1.028357
 H        -0.465148        -0.689366         0.501506
 H        -0.344595         0.783705        -0.578075
 H        -0.390898        -0.852463        -1.310719
 H         1.850481        -1.869306         1.036061
 H         2.807927        -2.004242        -0.585325
 H         4.042723        -1.096879         1.909281
 H         4.027697         1.945277        -0.402547
 H         2.035558         1.683396        -1.396866
 H         2.713560         0.061599        -2.058173
 H         3.304253         1.325635         1.937220
