19
Iteration:  4334
 C         0.211053        -0.262230        -0.681781
 C         1.511009        -0.004685        -0.048379
 C         2.188171        -1.297165         0.328046
 C         3.542233        -0.731450         0.912821
 O         4.417300        -0.351042        -0.152775
 C         3.625992         0.968626        -0.281915
 C         2.370738         0.772499        -1.060124
 C         2.955690         0.764303         1.191692
 O         1.612530         0.828633         1.168309
 H        -0.485104        -0.828114        -0.050827
 H        -0.216431         0.626808        -1.011060
 H         0.275054        -0.919007        -1.573440
 H         1.667556        -1.821794         1.127263
 H         2.371386        -1.961350        -0.516596
 H         4.144947        -1.199629         1.664514
 H         4.272763         1.730469        -0.698051
 H         1.832145         1.657441        -1.520025
 H         2.728729         0.049945        -1.900514
 H         3.386696         1.280745         2.077640
