19
Iteration:  1288charge 0 multiplicity 1
 C         0.127953        -0.391438        -0.623177
 C         1.549915        -0.083350        -0.090128
 C         2.216764        -1.340202         0.360772
 C         3.575016        -0.598550         0.914670
 O         4.388255        -0.244105        -0.181862
 C         3.620485         1.001113        -0.295011
 C         2.353268         0.729823        -1.099145
 C         3.030703         0.819916         1.168597
 O         1.597329         0.797502         1.179599
 H        -0.357483        -1.029884         0.120718
 H        -0.311536         0.468771        -1.090565
 H         0.355763        -1.181456        -1.297395
 H         1.637022        -1.615476         1.180161
 H         2.583748        -2.172723        -0.344622
 H         4.145346        -1.365731         1.611487
 H         4.211122         1.795146        -0.576114
 H         1.750995         1.626814        -1.307259
 H         2.427958         0.339663        -2.129714
 H         3.412321         1.412036         1.998082
