19
Iteration:  3429charge 0 multiplicity 1
 C         0.188731        -0.312401        -0.629128
 C         1.524194        -0.040770        -0.151756
 C         2.310434        -1.324339         0.390663
 C         3.502627        -0.722691         1.028082
 O         4.346642        -0.254707        -0.119866
 C         3.670779         0.914325        -0.403887
 C         2.366891         0.769989        -1.090797
 C         3.002788         0.758833         1.235247
 O         1.565497         0.847895         1.051723
 H        -0.413524        -0.812946         0.108657
 H        -0.202808         0.706904        -0.852144
 H         0.240661        -0.923297        -1.490588
 H         1.789100        -1.857061         1.179920
 H         2.510205        -2.190524        -0.253510
 H         4.001327        -1.232391         1.891133
 H         4.413265         1.695908        -0.562407
 H         1.876748         1.688200        -1.147701
 H         2.309016         0.288717        -2.150751
 H         3.396764         1.406505         1.989263
