19
Iteration:  1447
 C         0.102006        -0.369418        -0.528326
 C         1.492353        -0.149636        -0.129381
 C         2.244536        -1.335758         0.377166
 C         3.558904        -0.683438         0.892860
 O         4.498248        -0.163230        -0.132769
 C         3.595332         1.004498        -0.273472
 C         2.352577         0.714011        -1.117165
 C         3.051581         0.752926         1.161526
 O         1.549657         0.859314         1.087195
 H        -0.472382        -0.871671         0.228110
 H        -0.283142         0.596249        -0.894583
 H         0.122550        -1.106651        -1.364887
 H         1.753814        -2.072355         1.096169
 H         2.494868        -1.875257        -0.443233
 H         4.058587        -1.194423         1.632404
 H         4.320399         1.878709        -0.512776
 H         1.832405         1.672547        -1.462973
 H         2.598058        -0.051060        -1.875829
 H         3.356193         1.468566         1.894221
