19
Iteration:  4321charge 0 multiplicity 1
 C         0.135850        -0.331456        -0.769082
 C         1.452354         0.065430        -0.052325
 C         2.272673        -1.243014         0.374032
 C         3.505477        -0.721497         0.936356
 O         4.363459        -0.330715        -0.221652
 C         3.663614         0.903958        -0.238058
 C         2.383369         0.723820        -1.042813
 C         3.149887         0.785131         1.217874
 O         1.549231         0.829268         1.189394
 H        -0.588651        -0.728039        -0.000382
 H        -0.284058         0.395525        -1.446318
 H         0.503864        -1.088765        -1.402922
 H         1.631660        -1.910320         0.989998
 H         2.503471        -1.848195        -0.547166
 H         3.920387        -1.422965         1.641854
 H         4.326745         1.834047        -0.410928
 H         2.038827         1.740541        -1.207524
 H         2.398197         0.197614        -2.037550
 H         3.499924         1.441334         1.996469
