19
Iteration:  3103charge 0 multiplicity 1
 C        -0.085097        -0.199232        -0.433832
 C         1.409656        -0.067237        -0.179091
 C         2.313110        -1.296797         0.254496
 C         3.547713        -0.700356         0.934648
 O         4.591714        -0.133876         0.046187
 C         3.657254         0.904312        -0.237625
 C         2.477031         0.515710        -1.219576
 C         3.016609         0.724537         1.153770
 O         1.560378         0.840912         0.979484
 H        -0.702897        -0.828475         0.162265
 H        -0.365564         0.895240        -0.194336
 H        -0.468507        -0.334250        -1.474327
 H         1.790512        -1.894129         1.017801
 H         2.752574        -1.924752        -0.517781
 H         3.778162        -1.450838         1.717403
 H         4.023450         1.871780        -0.415905
 H         2.011064         1.403536        -1.747587
 H         2.793841        -0.274107        -2.054495
 H         3.241949         1.429372         1.988436
