19
Iteration:  1734charge 0 multiplicity 1
 C         0.123301        -0.394800        -0.600484
 C         1.546073        -0.102659        -0.142842
 C         2.287327        -1.312376         0.427789
 C         3.531685        -0.619618         0.979063
 O         4.347318        -0.227865        -0.170699
 C         3.612609         1.000562        -0.261987
 C         2.354735         0.761952        -1.117604
 C         3.063041         0.814021         1.174972
 O         1.630472         0.734971         1.067481
 H        -0.487859        -0.872232         0.191590
 H        -0.378047         0.491537        -0.958528
 H         0.114209        -0.920666        -1.546880
 H         1.594769        -1.729183         1.206830
 H         2.504104        -2.090499        -0.364503
 H         4.104356        -1.211365         1.691048
 H         4.289337         1.867602        -0.557193
 H         1.719953         1.711992        -1.232717
 H         2.594160         0.170357        -2.048935
 H         3.391732         1.477976         1.928898
