19
Iteration:  2570charge 0 multiplicity 1
 C         0.146345        -0.407907        -0.662341
 C         1.513380        -0.038599        -0.112905
 C         2.217469        -1.272091         0.433098
 C         3.569839        -0.659535         0.967319
 O         4.309056        -0.311156        -0.229394
 C         3.588951         0.975973        -0.245793
 C         2.375688         0.725367        -1.098769
 C         3.058957         0.792194         1.200272
 O         1.679793         0.879733         1.125901
 H        -0.495391        -0.917076         0.040293
 H        -0.391273         0.404240        -1.127490
 H         0.271437        -1.051842        -1.567022
 H         1.614725        -1.739168         1.251159
 H         2.318928        -1.964572        -0.365378
 H         4.193404        -1.322332         1.673394
 H         4.253179         1.784049        -0.539037
 H         1.996776         1.698559        -1.449405
 H         2.674392         0.063448        -2.002672
 H         3.408672         1.341994         2.138260
