19
Iteration:  3995charge 0 multiplicity 1
 C         0.084805        -0.246073        -0.631630
 C         1.510645        -0.097790        -0.178403
 C         2.218200        -1.321229         0.387213
 C         3.541877        -0.676234         0.993610
 O         4.454975        -0.229949        -0.109144
 C         3.624367         0.952834        -0.210212
 C         2.378828         0.713218        -1.166686
 C         3.049573         0.712436         1.197850
 O         1.632783         0.801602         1.020931
 H        -0.578743        -1.070102        -0.140440
 H        -0.546220         0.639705        -0.229894
 H        -0.015577        -0.188630        -1.716964
 H         1.613805        -1.677458         1.272762
 H         2.278192        -2.214505        -0.270854
 H         4.031232        -1.334278         1.742475
 H         4.127993         1.930248        -0.228750
 H         1.872478         1.623877        -1.488644
 H         2.764106         0.186909        -2.114933
 H         3.470336         1.285016         2.047013
