19
Iteration:  2342charge 0 multiplicity 1
 C         0.016344        -0.244354        -0.461762
 C         1.498360        -0.073628        -0.134213
 C         2.339244        -1.250585         0.320513
 C         3.509899        -0.668975         0.953755
 O         4.482435        -0.204876        -0.065720
 C         3.611186         0.946510        -0.298061
 C         2.394239         0.633059        -1.155180
 C         2.996954         0.791823         1.132778
 O         1.612946         0.746209         1.008966
 H        -0.442923        -0.625349         0.446120
 H        -0.624120         0.628184        -0.629873
 H        -0.141419        -0.948830        -1.301260
 H         1.769710        -1.913922         1.041722
 H         2.665938        -1.922122        -0.409143
 H         4.043624        -1.282140         1.739168
 H         4.196659         1.836047        -0.465675
 H         1.998245         1.459588        -1.678990
 H         2.651207        -0.146269        -1.915463
 H         3.281002         1.424708         1.949880
