19
Iteration:  2983
 C         0.032689        -0.195279        -0.532911
 C         1.498037        -0.179874        -0.178803
 C         2.308894        -1.340634         0.389717
 C         3.547242        -0.646397         1.040987
 O         4.467462        -0.354542        -0.080801
 C         3.644642         0.985762        -0.241950
 C         2.380381         0.724334        -1.145741
 C         2.977083         0.797939         1.143758
 O         1.622867         0.800511         0.941914
 H        -0.617364        -0.693177         0.173186
 H        -0.404338         0.849924        -0.672841
 H        -0.261133        -0.764828        -1.467233
 H         1.674724        -1.760573         1.193645
 H         2.625446        -2.028377        -0.378408
 H         4.171743        -1.190948         1.778787
 H         4.215264         1.845918        -0.414374
 H         1.885345         1.709456        -1.193861
 H         2.656717         0.420117        -2.240832
 H         3.260680         1.493124         1.905260
