19
Iteration:  3789
 C        -0.039036        -0.173339        -0.555012
 C         1.429856        -0.094217        -0.181654
 C         2.307665        -1.357587         0.309079
 C         3.559864        -0.696409         1.013323
 O         4.543596        -0.236540         0.014694
 C         3.667544         0.880412        -0.251864
 C         2.371014         0.686990        -1.202697
 C         2.994030         0.791787         1.109461
 O         1.608614         0.818210         1.025525
 H        -0.613501        -0.829612         0.198738
 H        -0.540170         0.781961        -0.420517
 H        -0.224595        -0.593698        -1.541030
 H         1.689576        -2.009141         0.985951
 H         2.824727        -1.881198        -0.567399
 H         3.990763        -1.168295         1.940758
 H         4.220530         1.794109        -0.463120
 H         2.055007         1.714427        -1.464217
 H         2.683090        -0.015468        -2.083775
 H         3.307553         1.223031         2.048323
