19
Iteration:    21
 C         0.033483        -0.236024        -0.255536
 C         1.589533        -0.167333        -0.224496
 C         2.293091        -1.427511         0.266976
 C         3.529386        -0.724424         0.949826
 O         4.515316        -0.128855         0.010820
 C         3.581344         1.031959        -0.241918
 C         2.461962         0.680976        -1.268227
 C         2.925777         0.776333         1.126228
 O         1.564623         0.801225         0.904791
 H        -0.280141        -0.723785         0.669297
 H        -0.331634         0.832709        -0.274498
 H        -0.468626        -0.719684        -1.127885
 H         1.614553        -2.020271         1.006315
 H         2.490430        -2.119280        -0.545132
 H         3.889665        -1.365682         1.690747
 H         4.100353         1.843690        -0.409492
 H         1.907627         1.570255        -1.508534
 H         2.865939         0.165320        -2.188439
 H         3.278682         1.348358         1.962093
