19
Iteration:  3560charge 0 multiplicity 1
 C        -0.039005        -0.286008        -0.593198
 C         1.476147        -0.141871        -0.177766
 C         2.205577        -1.375072         0.332887
 C         3.534833        -0.694617         0.922390
 O         4.476783        -0.225555        -0.095605
 C         3.672276         1.021750        -0.223350
 C         2.460762         0.678566        -1.140087
 C         3.025429         0.801083         1.230483
 O         1.632002         0.855381         1.057098
 H        -0.630638        -0.388570         0.365545
 H        -0.371864         0.581882        -1.247340
 H        -0.047153        -1.215567        -1.144130
 H         1.619654        -1.748547         1.163693
 H         2.465814        -2.222499        -0.328299
 H         4.089446        -1.413976         1.600441
 H         4.341812         1.896497        -0.317917
 H         1.820602         1.523989        -1.415432
 H         2.894138         0.238975        -2.205554
 H         3.363277         1.402360         2.092953
