19
Iteration:   179
 C        -0.063685        -0.174663        -0.334434
 C         1.486819        -0.150091        -0.226295
 C         2.330230        -1.306311         0.194674
 C         3.530566        -0.624592         0.984018
 O         4.539815        -0.119681         0.029584
 C         3.614096         0.976309        -0.272308
 C         2.458745         0.554178        -1.224590
 C         3.002749         0.763941         1.122377
 O         1.573860         0.702413         1.002922
 H        -0.383921        -0.681380         0.562965
 H        -0.462487         0.835192        -0.439631
 H        -0.659464        -0.709491        -1.095358
 H         1.784278        -1.904984         0.915230
 H         2.783236        -1.954397        -0.641614
 H         3.922733        -1.442636         1.732613
 H         4.097969         1.910359        -0.448422
 H         2.103472         1.561498        -1.651079
 H         2.749290        -0.043547        -2.160812
 H         3.252327         1.415111         1.948808
