19
Iteration:  1944
 C        -0.106747        -0.199009        -0.391898
 C         1.457562        -0.144218        -0.153487
 C         2.370607        -1.400372         0.249915
 C         3.560370        -0.637924         0.954151
 O         4.514429        -0.091633        -0.055901
 C         3.675181         0.979394        -0.223917
 C         2.410059         0.617536        -1.129597
 C         2.973106         0.786615         1.170141
 O         1.600670         0.714987         0.937287
 H        -0.470771        -0.609718         0.505320
 H        -0.472141         0.810036        -0.616859
 H        -0.329414        -0.803004        -1.273558
 H         1.863782        -2.065678         0.898158
 H         2.820915        -1.938184        -0.695162
 H         3.988991        -1.154761         1.818813
 H         4.225016         1.767204        -0.761137
 H         1.895575         1.438819        -1.709240
 H         2.731361        -0.148855        -1.789191
 H         3.142477         1.482972         1.981410
