19
Iteration:   146charge 0 multiplicity 1
 C         0.033613        -0.333610        -0.540634
 C         1.504160        -0.087055        -0.109941
 C         2.300446        -1.354960         0.257016
 C         3.514532        -0.687820         0.955708
 O         4.475613        -0.200049        -0.050325
 C         3.623805         0.934212        -0.324054
 C         2.374840         0.662687        -1.108302
 C         3.031730         0.806276         1.144026
 O         1.589468         0.886762         1.077140
 H        -0.422544        -0.817314         0.318587
 H        -0.543929         0.568719        -0.682483
 H         0.053753        -1.021265        -1.380791
 H         1.840426        -1.947609         1.015788
 H         2.634942        -2.020109        -0.589641
 H         4.071689        -1.319904         1.748132
 H         3.963974         1.872106        -0.580774
 H         1.993134         1.729885        -1.291637
 H         2.557984         0.153543        -2.080682
 H         3.528056         1.317329         1.974533
