19
Iteration:  3055
 C         0.041886        -0.281735        -0.573002
 C         1.479417        -0.074461        -0.179729
 C         2.279311        -1.351700         0.403042
 C         3.614926        -0.718449         0.955585
 O         4.447695        -0.302844        -0.094912
 C         3.655596         0.946820        -0.244813
 C         2.398193         0.749071        -1.129500
 C         2.971411         0.814615         1.204157
 O         1.598376         0.843235         0.981651
 H        -0.685982        -0.580878         0.227255
 H        -0.381271         0.569236        -1.011840
 H        -0.095887        -1.068620        -1.331541
 H         1.722315        -1.718605         1.288721
 H         2.476044        -2.117335        -0.352662
 H         3.995965        -1.258602         1.795545
 H         4.401821         1.781737        -0.457290
 H         1.805316         1.626707        -1.292393
 H         2.708037         0.381573        -2.081401
 H         3.346351         1.501760         1.960694
