19
Iteration:  4867
 C         0.098904        -0.342676        -0.696106
 C         1.503753        -0.078484        -0.171841
 C         2.177816        -1.282589         0.534516
 C         3.512551        -0.690128         1.012790
 O         4.342242        -0.385203        -0.153492
 C         3.719246         0.927272        -0.231852
 C         2.486639         0.762017        -1.108801
 C         3.020216         0.839996         1.114940
 O         1.628027         0.876468         1.033618
 H        -0.583046         0.291467        -0.163036
 H         0.124674        -0.300679        -1.852220
 H        -0.055764        -1.419217        -0.460067
 H         1.488773        -1.461435         1.362320
 H         2.243478        -2.090201        -0.221047
 H         4.079028        -1.159510         1.822125
 H         4.378750         1.833469        -0.531666
 H         2.025054         1.797429        -1.130903
 H         2.640466         0.334015        -2.181968
 H         3.220469         1.460757         1.993127
