19
Iteration:  3007
 C         0.216597        -0.307263        -0.741860
 C         1.517181         0.002192        -0.084015
 C         2.249106        -1.360687         0.460717
 C         3.533001        -0.689176         0.983727
 O         4.270959        -0.355470        -0.186486
 C         3.631144         0.994637        -0.319328
 C         2.394396         0.727450        -1.085249
 C         3.046779         0.858783         1.194146
 O         1.616323         0.826738         1.146250
 H        -0.494186        -0.655038        -0.007422
 H        -0.384863         0.458293        -1.355711
 H         0.251894        -1.224225        -1.323506
 H         1.570930        -1.774338         1.211710
 H         2.482374        -2.042163        -0.397380
 H         4.217455        -1.231351         1.732124
 H         4.291542         1.811819        -0.635098
 H         1.987882         1.698801        -1.407186
 H         2.566322         0.117076        -1.953663
 H         3.566666         1.365898         2.050965
