19
Iteration:  4497charge 0 multiplicity 1
 C        -0.032386        -0.233585        -0.550171
 C         1.503542        -0.034115        -0.173365
 C         2.199744        -1.276571         0.201794
 C         3.458080        -0.731343         0.894435
 O         4.658972        -0.255679        -0.018750
 C         3.666186         0.928586        -0.194606
 C         2.388093         0.686634        -1.109203
 C         2.991523         0.770405         1.187884
 O         1.597412         0.803085         1.071160
 H        -0.591166        -0.006318         0.333340
 H        -0.212473         0.319430        -1.424513
 H        -0.299499        -1.301950        -0.721984
 H         1.766434        -1.941877         0.957896
 H         2.454990        -1.804619        -0.708464
 H         3.939938        -1.421596         1.560994
 H         4.211868         1.841597        -0.466351
 H         1.995766         1.562194        -1.323473
 H         2.467988         0.035927        -1.980814
 H         3.389657         1.414794         2.021334
