19
Iteration:   766charge 0 multiplicity 1
 C         0.018745        -0.193305        -0.357968
 C         1.476264        -0.113511        -0.102294
 C         2.382781        -1.379790         0.146327
 C         3.541290        -0.681245         0.941708
 O         4.573346        -0.092161         0.041670
 C         3.649470         0.956855        -0.288180
 C         2.317480         0.518075        -1.191586
 C         2.969787         0.805850         1.117515
 O         1.532827         0.800306         0.990220
 H        -0.463865        -0.695685         0.439546
 H        -0.368738         0.810192        -0.362554
 H        -0.240920        -0.786097        -1.208232
 H         1.914441        -2.140261         0.704154
 H         2.685594        -2.034226        -0.769647
 H         3.963966        -1.246285         1.683816
 H         3.976482         2.009316        -0.624379
 H         1.799181         1.422012        -1.423175
 H         2.709581        -0.078176        -1.962634
 H         3.374906         1.233759         1.992468
