19
Iteration:  4572charge 0 multiplicity 1
 C         0.131452        -0.222183        -0.719655
 C         1.459542        -0.032968        -0.055416
 C         2.188394        -1.360950         0.410117
 C         3.507631        -0.810785         0.980046
 O         4.486194        -0.271726        -0.127389
 C         3.595956         0.968194        -0.294915
 C         2.343281         0.812794        -1.123385
 C         3.064707         0.754097         1.152544
 O         1.614732         0.795057         1.138293
 H        -0.438671        -0.974861        -0.106313
 H        -0.417778         0.634290        -1.057401
 H         0.420684        -0.668084        -1.705613
 H         1.704574        -1.910617         1.231706
 H         2.466334        -2.156782        -0.282688
 H         4.157490        -1.254236         1.645243
 H         4.205480         1.872926        -0.447751
 H         1.951529         1.856848        -1.374673
 H         2.644529         0.318896        -2.090621
 H         3.512536         1.382922         1.991872
