19
Iteration:  2082
 C        -0.064482        -0.165704        -0.327035
 C         1.507597        -0.183393        -0.197211
 C         2.337191        -1.371091         0.202690
 C         3.545866        -0.604637         0.974872
 O         4.598358        -0.095214        -0.012782
 C         3.543019         0.963772        -0.244987
 C         2.413346         0.580666        -1.218772
 C         2.946392         0.778130         1.131277
 O         1.623345         0.695374         0.982721
 H        -0.622327        -0.442685         0.631608
 H        -0.305490         0.933999        -0.577619
 H        -0.545105        -0.586013        -1.263285
 H         1.634404        -2.000133         0.912972
 H         2.739886        -1.959112        -0.568045
 H         3.957596        -1.165208         1.833113
 H         4.188832         1.850600        -0.426444
 H         1.977477         1.439015        -1.792420
 H         2.749051        -0.247853        -1.931694
 H         3.254476         1.375387         1.975430
