19
Iteration:  3455
 C         0.109601        -0.426710        -0.767384
 C         1.442829        -0.020715        -0.079155
 C         2.208652        -1.237979         0.450262
 C         3.491334        -0.630695         0.978738
 O         4.315532        -0.374240        -0.234856
 C         3.630690         0.995824        -0.214339
 C         2.424036         0.744003        -1.062932
 C         3.135445         0.883787         1.177105
 O         1.681289         0.771105         1.090192
 H        -0.402768        -1.316737        -0.217526
 H        -0.491084         0.461312        -0.855097
 H         0.486632        -0.763994        -1.788739
 H         1.694960        -1.759770         1.356794
 H         2.447103        -2.150728        -0.223353
 H         3.942528        -1.105683         1.887025
 H         4.355610         1.799517        -0.258168
 H         1.852435         1.722812        -1.267825
 H         2.677454         0.261681        -1.926070
 H         3.489568         1.585287         1.981745
