19
Iteration:  2080charge 0 multiplicity 1
 C        -0.061756        -0.154381        -0.318424
 C         1.486765        -0.164750        -0.186514
 C         2.349109        -1.366186         0.198241
 C         3.562568        -0.601051         0.967259
 O         4.605184        -0.098870        -0.007201
 C         3.549240         0.953156        -0.238789
 C         2.412883         0.574842        -1.215161
 C         2.941304         0.776717         1.120548
 O         1.611964         0.693058         0.974365
 H        -0.667102        -0.469888         0.593673
 H        -0.331410         0.865948        -0.591078
 H        -0.527298        -0.560327        -1.208646
 H         1.654861        -2.010887         0.885588
 H         2.699312        -1.963264        -0.593580
 H         3.996105        -1.153249         1.824220
 H         4.094697         1.834687        -0.406246
 H         2.020101         1.413082        -1.830478
 H         2.790809        -0.276000        -1.936131
 H         3.237745         1.367168         2.024985
