19
Iteration:  2700charge 0 multiplicity 1
 C         0.035157        -0.296332        -0.551608
 C         1.528233        -0.096633        -0.141237
 C         2.231680        -1.323240         0.319890
 C         3.517874        -0.649577         0.895827
 O         4.455251        -0.257168        -0.154781
 C         3.686463         0.958671        -0.207530
 C         2.444023         0.697679        -1.068040
 C         3.023060         0.846693         1.125612
 O         1.564034         0.771513         1.078060
 H        -0.559088        -0.370768         0.365973
 H        -0.272670         0.612535        -1.034553
 H        -0.132099        -1.244150        -1.106179
 H         1.587283        -1.820498         1.128098
 H         2.564509        -2.020697        -0.424021
 H         4.004146        -1.206423         1.724430
 H         4.351815         1.775368        -0.379738
 H         1.875871         1.581032        -1.350149
 H         2.688967         0.074741        -2.000193
 H         3.302325         1.516511         1.990039
