19
Iteration:  2264
 C         0.104029        -0.348003        -0.501707
 C         1.567421        -0.102647        -0.155387
 C         2.278291        -1.339551         0.376619
 C         3.454164        -0.675681         0.962763
 O         4.379487        -0.222268        -0.145367
 C         3.643883         0.986556        -0.274327
 C         2.370886         0.705624        -1.107558
 C         3.052248         0.850364         1.160056
 O         1.610615         0.774213         1.029647
 H        -0.500050        -0.817069         0.305217
 H        -0.213724         0.600371        -0.877281
 H         0.074995        -0.938232        -1.403422
 H         1.591529        -1.776328         1.103286
 H         2.564951        -2.098666        -0.315741
 H         4.070886        -1.154591         1.780618
 H         4.279548         1.747015        -0.660371
 H         1.916409         1.623454        -1.284534
 H         2.638133         0.294318        -2.122593
 H         3.398800         1.542632         1.964388
