19
Iteration:  2584charge 0 multiplicity 1
 C         0.109201        -0.497493        -0.736746
 C         1.445951         0.004918        -0.001429
 C         2.167358        -1.315349         0.489792
 C         3.457397        -0.748977         0.831751
 O         4.371889        -0.326055        -0.275770
 C         3.712281         0.962809        -0.253306
 C         2.466870         0.785090        -1.073907
 C         3.093356         0.926822         1.176653
 O         1.609972         0.892415         1.198189
 H        -0.398775        -1.267577        -0.169533
 H        -0.614014         0.373178        -1.055131
 H         0.644246        -1.124910        -1.518393
 H         1.639582        -1.622833         1.392210
 H         2.287322        -2.178520        -0.221609
 H         4.041333        -1.236695         1.654169
 H         4.342287         1.904136        -0.552119
 H         1.840503         1.687631        -1.311459
 H         2.768172         0.275730        -1.940892
 H         3.622168         1.493521         1.936429
