19
Iteration:  1137
 C         0.112184        -0.415781        -0.643665
 C         1.496278        -0.152826        -0.050983
 C         2.281477        -1.377123         0.436113
 C         3.536891        -0.644263         0.983835
 O         4.304197        -0.265552        -0.224711
 C         3.665898         1.033879        -0.317413
 C         2.369865         0.826270        -1.070877
 C         3.043043         0.854096         1.208040
 O         1.627248         0.795996         1.048773
 H        -0.603993        -0.935228         0.068643
 H        -0.342217         0.455862        -1.085470
 H         0.371062        -1.239558        -1.314050
 H         1.834397        -1.841189         1.279367
 H         2.693383        -2.129495        -0.415768
 H         4.235680        -1.131795         1.623981
 H         4.328048         1.893182        -0.426026
 H         1.859135         1.810937        -1.215787
 H         2.554759         0.543657        -2.150630
 H         3.408629         1.370747         2.073146
