19
Iteration:  1983
 C         0.211772        -0.455333        -0.660953
 C         1.490693         0.004983        -0.099321
 C         2.238064        -1.306579         0.483999
 C         3.524005        -0.708895         0.954391
 O         4.316761        -0.229189        -0.202956
 C         3.644881         1.001727        -0.294274
 C         2.274215         0.805077        -1.062414
 C         3.046698         0.808128         1.164034
 O         1.692652         0.775487         1.073779
 H        -0.362700        -1.110191         0.124047
 H        -0.363824         0.398506        -1.120795
 H         0.385244        -1.013804        -1.617937
 H         1.638480        -1.793819         1.363044
 H         2.440794        -2.077272        -0.151766
 H         4.218477        -1.315666         1.575695
 H         4.311557         1.934465        -0.515566
 H         1.941425         1.766819        -1.390663
 H         2.451782         0.149437        -1.985732
 H         3.337427         1.310813         2.124884
