19
Iteration:  4292
 C         0.117151        -0.317021        -0.618505
 C         1.523187        -0.043458        -0.240232
 C         2.250550        -1.368158         0.419986
 C         3.491887        -0.764063         0.889918
 O         4.380246        -0.326876        -0.123342
 C         3.666059         1.036045        -0.213748
 C         2.386335         0.873057        -1.075160
 C         3.030352         0.752774         1.180794
 O         1.648082         0.813656         1.082957
 H        -0.398806        -0.242570         0.322072
 H        -0.186376         0.274305        -1.489096
 H        -0.058052        -1.352688        -1.109066
 H         1.577991        -1.816446         1.134028
 H         2.307896        -2.155988        -0.297540
 H         3.914454        -1.378714         1.684911
 H         4.351535         1.786038        -0.396198
 H         1.956572         1.938562        -1.101070
 H         2.541858         0.560541        -2.160996
 H         3.271954         1.341855         2.105687
