19
Iteration:  4403charge 0 multiplicity 1
 C         0.008943        -0.227779        -0.543353
 C         1.470400        -0.027480        -0.170657
 C         2.231043        -1.313043         0.182947
 C         3.495169        -0.724379         0.977931
 O         4.496055        -0.203071         0.053782
 C         3.588468         0.892984        -0.297770
 C         2.452048         0.624903        -1.102509
 C         3.076427         0.767459         1.157597
 O         1.662573         0.831079         1.078714
 H        -0.324376        -1.157887        -0.095950
 H        -0.560882         0.745119        -0.219000
 H        -0.377942        -0.479943        -1.584219
 H         1.489072        -2.006747         0.597853
 H         2.539432        -1.701399        -0.806789
 H         3.770220        -1.381033         1.876694
 H         4.127319         1.810557        -0.521879
 H         1.991489         1.640162        -1.568912
 H         2.678188        -0.067463        -1.970015
 H         3.582500         1.415082         1.895504
