19
Iteration:  4681charge 0 multiplicity 1
 C         0.087017        -0.129570        -0.586094
 C         1.494199        -0.045393        -0.155144
 C         2.240170        -1.340552         0.256113
 C         3.534006        -0.742769         0.955338
 O         4.474977        -0.209375        -0.015980
 C         3.573804         0.956298        -0.224587
 C         2.412550         0.596072        -1.155484
 C         3.051603         0.731262         1.210483
 O         1.596174         0.794431         1.065390
 H        -0.222666        -1.061798        -1.057557
 H        -0.555988         0.089538         0.247609
 H        -0.266503         0.555057        -1.376197
 H         1.659915        -1.860869         1.010247
 H         2.544694        -1.905567        -0.629708
 H         4.125531        -1.318534         1.631692
 H         4.161208         1.767697        -0.666468
 H         1.913614         1.575951        -1.526456
 H         2.804110        -0.110768        -1.965053
 H         3.295412         1.378094         2.104856
