19
Iteration:  4907
 C         0.022197        -0.192068        -0.571278
 C         1.528696        -0.044220        -0.142726
 C         2.228130        -1.368440         0.345356
 C         3.456598        -0.680884         0.993630
 O         4.458624        -0.245463        -0.018312
 C         3.666402         0.894087        -0.214732
 C         2.513928         0.517307        -1.197864
 C         2.973845         0.876280         1.106356
 O         1.609258         0.835970         0.984438
 H        -0.632542         0.423885         0.135141
 H        -0.215671         0.351380        -1.429808
 H        -0.450312        -1.175101        -0.468779
 H         1.782385        -1.990647         1.128685
 H         2.486387        -1.989817        -0.525956
 H         3.932928        -1.033688         1.896030
 H         4.334200         1.747904        -0.411459
 H         2.030265         1.471508        -1.371150
 H         2.800548        -0.012217        -2.036918
 H         3.485369         1.506534         1.963315
