19
Iteration:   442
 C        -0.013561        -0.213899        -0.493183
 C         1.527930        -0.144530        -0.133765
 C         2.340669        -1.336197         0.289838
 C         3.540280        -0.688075         0.918325
 O         4.483710        -0.179895        -0.082655
 C         3.609011         1.034101        -0.255758
 C         2.366176         0.628308        -1.151802
 C         3.053616         0.796319         1.144224
 O         1.570797         0.743727         1.066224
 H        -0.623052        -0.699460         0.304339
 H        -0.294059         0.853845        -0.735755
 H        -0.104718        -0.885314        -1.383655
 H         1.753270        -1.883725         1.141452
 H         2.701576        -2.086658        -0.502469
 H         4.097270        -1.353174         1.698990
 H         4.100045         1.943096        -0.533185
 H         1.873186         1.551605        -1.380064
 H         2.605334         0.104506        -2.091776
 H         3.247967         1.297091         2.094601
