19
Iteration:  1234
 C         0.135937        -0.356490        -0.563419
 C         1.590012        -0.081664        -0.110119
 C         2.271889        -1.336702         0.403282
 C         3.539850        -0.614319         0.984540
 O         4.401307        -0.234098        -0.192040
 C         3.595859         0.998536        -0.273754
 C         2.372137         0.775452        -1.114461
 C         2.995415         0.808722         1.115470
 O         1.587765         0.716024         1.072846
 H        -0.311327        -1.028713         0.173308
 H        -0.412493         0.556452        -0.566426
 H        -0.000601        -0.879545        -1.477917
 H         1.688705        -1.727004         1.174438
 H         2.645054        -2.131410        -0.339497
 H         3.971377        -1.215668         1.833477
 H         4.126318         1.828244        -0.556922
 H         1.755536         1.659088        -1.367478
 H         2.705819         0.261048        -2.046598
 H         3.309828         1.419207         1.943777
