19
Iteration:   388charge 0 multiplicity 1
 C         0.165609        -0.463101        -0.635709
 C         1.557813        -0.051805        -0.135454
 C         2.230653        -1.354369         0.498259
 C         3.537562        -0.711757         0.928057
 O         4.291769        -0.281593        -0.301643
 C         3.660788         1.006219        -0.187837
 C         2.332174         0.914110        -1.027538
 C         3.056974         0.751492         1.167625
 O         1.639666         0.843672         1.049833
 H        -0.259327        -1.040486         0.203679
 H        -0.547025         0.336037        -0.997917
 H         0.297079        -1.082282        -1.558406
 H         1.620519        -1.787336         1.392611
 H         2.492295        -2.186642        -0.238573
 H         4.360711        -1.126038         1.678447
 H         4.288399         1.860181        -0.418773
 H         1.907551         1.895658        -1.247265
 H         2.715868         0.558006        -2.051901
 H         3.034761         1.266600         2.136856
