19
Iteration:  4901
 C         0.083744        -0.178545        -0.557208
 C         1.544409        -0.075319        -0.168735
 C         2.248383        -1.349479         0.406572
 C         3.509834        -0.714294         1.047550
 O         4.377656        -0.297648        -0.038297
 C         3.654940         0.929832        -0.212545
 C         2.513098         0.611521        -1.214914
 C         2.957560         0.854536         1.112915
 O         1.630585         0.833324         0.979110
 H        -0.542295         0.377046         0.111503
 H        -0.250750         0.234372        -1.601386
 H        -0.320555        -1.203885        -0.476597
 H         1.586653        -1.948480         1.074321
 H         2.436428        -2.053748        -0.420311
 H         4.004872        -1.125819         1.952073
 H         4.102027         1.879311        -0.604959
 H         1.993813         1.583680        -1.577026
 H         2.776014         0.052933        -2.196357
 H         3.258211         1.466808         1.888887
