19
Iteration:  3784
 C        -0.036783        -0.203010        -0.587667
 C         1.456445        -0.107634        -0.221296
 C         2.299199        -1.357526         0.315034
 C         3.528859        -0.689192         1.043952
 O         4.506418        -0.225448        -0.024479
 C         3.660412         0.876254        -0.274332
 C         2.366488         0.700149        -1.153422
 C         3.025735         0.791590         1.133610
 O         1.639761         0.812124         1.046996
 H        -0.538194        -0.728552         0.176410
 H        -0.488342         0.803988        -0.452658
 H        -0.097670        -0.654706        -1.596743
 H         1.613582        -1.925266         0.937004
 H         2.838819        -2.038226        -0.329419
 H         3.885417        -1.167500         1.935393
 H         4.221450         1.806759        -0.516015
 H         2.052588         1.721680        -1.472975
 H         2.538733         0.132296        -2.008981
 H         3.350104         1.307985         2.061042
