19
Iteration:  1427
 C         0.127644        -0.414694        -0.678086
 C         1.466557        -0.084591        -0.106965
 C         2.303614        -1.280538         0.426223
 C         3.591620        -0.662915         0.982189
 O         4.309332        -0.258570        -0.265552
 C         3.587956         1.041469        -0.221050
 C         2.387643         0.753728        -1.101015
 C         3.045810         0.808659         1.201164
 O         1.656853         0.795958         1.108531
 H        -0.435807        -1.114376        -0.023060
 H        -0.548527         0.315748        -1.178014
 H         0.306827        -1.206925        -1.437181
 H         1.873980        -1.529780         1.458909
 H         2.317939        -2.197648        -0.153400
 H         4.161470        -1.169239         1.705525
 H         4.351266         1.814722        -0.580463
 H         1.890331         1.733739        -1.184659
 H         2.428037         0.246813        -2.065674
 H         3.379879         1.354552         2.102689
