19
Iteration:  4959charge 0 multiplicity 1
 C         0.070101        -0.215840        -0.523149
 C         1.545446        -0.115737        -0.203536
 C         2.198573        -1.322545         0.391637
 C         3.420812        -0.658098         1.030067
 O         4.442095        -0.305293        -0.043333
 C         3.693333         0.940400        -0.293741
 C         2.512099         0.600530        -1.137804
 C         2.945074         0.836588         1.113403
 O         1.613498         0.864025         0.957108
 H        -0.570652        -0.258707         0.411293
 H        -0.234595         0.667185        -1.025860
 H        -0.248003        -1.106190        -1.098004
 H         1.641836        -1.786566         1.231191
 H         2.638290        -2.060243        -0.275780
 H         3.950003        -1.180840         1.888044
 H         4.287593         1.749311        -0.695171
 H         2.040333         1.658456        -1.443429
 H         2.886992        -0.005114        -1.970521
 H         3.408735         1.373304         1.995567
