19
Iteration:  4066
 C         0.046442        -0.285790        -0.545650
 C         1.482975        -0.014488        -0.115176
 C         2.249502        -1.308617         0.244264
 C         3.540819        -0.718484         0.920128
 O         4.529466        -0.244478        -0.059719
 C         3.705664         0.919138        -0.230433
 C         2.415949         0.715862        -1.160303
 C         2.976225         0.769385         1.190812
 O         1.543013         0.795697         1.098161
 H        -0.675487        -0.414437         0.168740
 H        -0.248838         0.582911        -1.127487
 H         0.054027        -1.096026        -1.280481
 H         1.505932        -1.798842         0.914759
 H         2.530493        -2.045034        -0.516354
 H         3.910341        -1.340104         1.754451
 H         4.352720         1.780492        -0.532674
 H         1.982849         1.797519        -1.346217
 H         2.333965         0.120486        -2.075145
 H         3.403554         1.443375         1.951557
