19
Iteration:  4424
 C         0.034058        -0.278920        -0.620160
 C         1.450876        -0.009903        -0.118551
 C         2.261583        -1.310903         0.376273
 C         3.510924        -0.710202         0.906848
 O         4.468295        -0.318556        -0.113578
 C         3.717502         0.948569        -0.196282
 C         2.373104         0.752327        -1.135696
 C         3.020625         0.760390         1.182730
 O         1.618613         0.851363         1.066719
 H        -0.420515        -1.121111        -0.138898
 H        -0.610102         0.648275        -0.747012
 H         0.212229        -0.746445        -1.646492
 H         1.733037        -1.861776         1.170495
 H         2.506001        -1.958049        -0.468637
 H         3.927972        -1.405270         1.693621
 H         4.483655         1.676500        -0.387124
 H         1.819198         1.777497        -1.372293
 H         2.657304         0.206311        -2.093569
 H         3.194471         1.220674         2.164468
