19
Iteration:  4290
 C         0.139607        -0.294491        -0.606382
 C         1.544369        -0.047469        -0.239395
 C         2.241173        -1.371496         0.405501
 C         3.483055        -0.771347         0.890960
 O         4.387725        -0.314224        -0.123563
 C         3.657009         1.031019        -0.209776
 C         2.395332         0.862085        -1.085839
 C         3.024656         0.753774         1.178325
 O         1.617732         0.807447         1.072723
 H        -0.388139        -0.224952         0.354295
 H        -0.223471         0.274591        -1.388355
 H        -0.077047        -1.309773        -0.995956
 H         1.615851        -1.782411         1.208529
 H         2.368061        -2.191698        -0.289984
 H         3.940130        -1.388405         1.639810
 H         4.386564         1.781099        -0.357896
 H         1.970890         1.923418        -1.074996
 H         2.520933         0.536029        -2.200042
 H         3.293814         1.319345         2.078390
