19
Iteration:  2910
 C         0.120562        -0.246755        -0.529507
 C         1.550123        -0.121779        -0.106486
 C         2.211089        -1.321846         0.430685
 C         3.487008        -0.649810         0.975312
 O         4.441858        -0.297722        -0.094531
 C         3.645576         0.966445        -0.273320
 C         2.427066         0.742217        -1.193321
 C         3.026792         0.779221         1.105427
 O         1.589561         0.758609         1.004700
 H        -0.608227        -0.833703        -0.025260
 H        -0.320910         0.789828        -0.595060
 H         0.054193        -0.671191        -1.519887
 H         1.647046        -1.861673         1.207936
 H         2.495593        -2.048120        -0.398432
 H         4.047732        -1.095763         1.848735
 H         4.346867         1.840353        -0.446386
 H         1.816726         1.645306        -1.166016
 H         2.504399         0.427028        -2.176472
 H         3.214450         1.429840         1.965152
