19
Iteration:  2753charge 0 multiplicity 1
 C         0.048896        -0.402554        -0.707173
 C         1.508696        -0.091384        -0.084356
 C         2.173873        -1.253558         0.486561
 C         3.551945        -0.708640         0.891871
 O         4.425678        -0.304972        -0.189027
 C         3.673751         1.003986        -0.341318
 C         2.469513         0.774590        -1.029177
 C         3.055269         0.797525         1.186018
 O         1.571048         0.859992         1.113780
 H        -0.387410        -1.257308        -0.088148
 H        -0.514802         0.497679        -0.835901
 H         0.292976        -0.827246        -1.733410
 H         1.614314        -1.517488         1.442355
 H         2.285011        -2.093341        -0.165345
 H         4.068659        -1.393370         1.551774
 H         4.271595         1.817008        -0.670399
 H         1.937022         1.640792        -1.103543
 H         2.695211         0.284065        -2.031262
 H         3.322414         1.307315         2.172512
