19
Iteration:  2347
 C        -0.037719        -0.224340        -0.433188
 C         1.518310        -0.092167        -0.173257
 C         2.372683        -1.277491         0.308354
 C         3.533541        -0.638189         0.942789
 O         4.473459        -0.216543        -0.043990
 C         3.636650         0.969890        -0.291136
 C         2.413415         0.591085        -1.146054
 C         2.981569         0.800221         1.172306
 O         1.606359         0.730860         0.989813
 H        -0.546972        -0.614322         0.480740
 H        -0.638091         0.708431        -0.560760
 H        -0.330690        -0.955811        -1.209327
 H         1.727885        -1.894974         0.918766
 H         2.652241        -1.880396        -0.640184
 H         3.912739        -1.228081         1.749780
 H         4.280883         1.854133        -0.553834
 H         1.889288         1.499584        -1.664339
 H         2.735784        -0.097658        -1.913757
 H         3.339552         1.605522         1.866544
