19
Iteration:  1613
 C        -0.053519        -0.260721        -0.421383
 C         1.452327        -0.102247        -0.135212
 C         2.304252        -1.311835         0.259613
 C         3.521796        -0.679772         0.893081
 O         4.639704        -0.083043        -0.053982
 C         3.578925         0.958250        -0.295083
 C         2.431440         0.585513        -1.173942
 C         2.971614         0.763798         1.156245
 O         1.592043         0.749835         1.057941
 H        -0.491929        -0.720045         0.518295
 H        -0.552038         0.663490        -0.686410
 H        -0.209249        -1.011549        -1.201772
 H         1.676469        -1.943562         0.939934
 H         2.728984        -1.950367        -0.574244
 H         3.812521        -1.149780         1.796345
 H         4.011429         1.999507        -0.506228
 H         1.852800         1.501242        -1.627793
 H         2.921991        -0.087958        -1.951473
 H         3.381635         1.372662         1.994002
