19
Iteration:  3765charge 0 multiplicity 1
 C         0.187860        -0.276079        -0.657154
 C         1.553492        -0.107704        -0.104764
 C         2.203092        -1.316837         0.428273
 C         3.505850        -0.685040         0.958359
 O         4.319370        -0.329889        -0.123819
 C         3.646942         0.999875        -0.272516
 C         2.416032         0.756918        -1.139667
 C         3.038859         0.846869         1.164561
 O         1.620378         0.748704         1.066071
 H        -0.507083        -0.706597         0.069006
 H        -0.367446         0.659940        -0.877555
 H         0.220335        -0.923607        -1.498247
 H         1.602462        -1.649538         1.329050
 H         2.390848        -2.019872        -0.415094
 H         4.051353        -1.239894         1.731809
 H         4.337899         1.833351        -0.588088
 H         1.806802         1.739940        -1.115024
 H         2.720654         0.343092        -2.106311
 H         3.397277         1.415100         2.033216
