19
Iteration:  4531
 C         0.023143        -0.146213        -0.381001
 C         1.522584        -0.044511        -0.236087
 C         2.316386        -1.409353         0.229102
 C         3.467625        -0.708221         0.959573
 O         4.499719        -0.238400        -0.077515
 C         3.648010         0.985184        -0.148623
 C         2.527317         0.716956        -1.207800
 C         2.942458         0.755048         1.192245
 O         1.554841         0.731223         0.983760
 H        -0.416914         0.119171         0.532040
 H        -0.512503         0.616766        -0.994134
 H        -0.380592        -1.100810        -0.731421
 H         1.640291        -2.073801         0.796894
 H         2.696432        -1.996927        -0.614401
 H         3.812541        -1.463900         1.692936
 H         4.224643         1.898988        -0.296793
 H         2.109454         1.557840        -1.573888
 H         2.777051         0.092431        -2.077286
 H         3.126726         1.450963         2.039096
