19
Iteration:   274charge 0 multiplicity 1
 C         0.106218        -0.412818        -0.628707
 C         1.528792        -0.058576        -0.140380
 C         2.291651        -1.361528         0.378534
 C         3.556209        -0.711965         0.955520
 O         4.317609        -0.303301        -0.247796
 C         3.677846         1.021686        -0.224512
 C         2.376152         0.818567        -1.073847
 C         3.039324         0.821910         1.251415
 O         1.588703         0.844878         1.060792
 H        -0.331435        -0.885443         0.289273
 H        -0.491063         0.471108        -0.875346
 H         0.095796        -1.115934        -1.470722
 H         1.754751        -1.753856         1.241972
 H         2.642050        -2.206783        -0.239706
 H         4.156048        -1.203141         1.629236
 H         4.305053         1.862641        -0.496689
 H         1.765137         1.677123        -1.248601
 H         2.574221         0.423127        -1.992049
 H         3.426557         1.434679         2.097757
