19
Iteration:  3682
 C        -0.070113        -0.151767        -0.480278
 C         1.479180        -0.123185        -0.175373
 C         2.358104        -1.303796         0.238246
 C         3.534553        -0.670318         1.018900
 O         4.491963        -0.219783        -0.008024
 C         3.697383         0.919341        -0.230346
 C         2.402127         0.630043        -1.173130
 C         2.926325         0.768358         1.203255
 O         1.608676         0.769711         0.961932
 H        -0.551765        -0.463781         0.501303
 H        -0.123016         0.905228        -0.645625
 H        -0.434119        -0.708903        -1.368394
 H         1.864492        -2.061194         0.779078
 H         2.778135        -1.890571        -0.576856
 H         3.971806        -1.441193         1.719409
 H         4.122836         1.860338        -0.492367
 H         1.942056         1.378384        -1.695537
 H         2.910289         0.074772        -2.052680
 H         3.294497         1.497024         1.921244
