19
Iteration:   133charge 0 multiplicity 1
 C         0.177977        -0.384705        -0.565327
 C         1.525395        -0.090522        -0.127898
 C         2.246897        -1.273323         0.437528
 C         3.525817        -0.695454         0.945187
 O         4.368812        -0.243026        -0.166526
 C         3.604282         0.993986        -0.228321
 C         2.349494         0.731112        -1.119938
 C         3.040336         0.807232         1.156438
 O         1.650742         0.804117         1.032875
 H        -0.481404        -0.910347         0.173438
 H        -0.265576         0.547909        -0.895159
 H         0.152012        -0.989983        -1.472255
 H         1.565389        -1.835265         1.106358
 H         2.456781        -1.918253        -0.501566
 H         4.053161        -1.265519         1.708236
 H         4.280015         1.660221        -0.477111
 H         1.656479         1.613689        -1.230375
 H         2.545621         0.345391        -2.073856
 H         3.400109         1.490914         1.993063
