19
Iteration:  3818
 C         0.009079        -0.168946        -0.369082
 C         1.493008        -0.087314        -0.240553
 C         2.222267        -1.367695         0.165083
 C         3.427083        -0.692620         0.930575
 O         4.527522        -0.132073         0.061175
 C         3.682659         0.933883        -0.206104
 C         2.505260         0.517832        -1.187411
 C         2.947173         0.803269         1.137425
 O         1.618240         0.813333         0.987371
 H        -0.336039        -0.967679         0.233914
 H        -0.395565         0.871705        -0.196411
 H        -0.547135        -0.401978        -1.292674
 H         1.585195        -1.901665         0.893364
 H         2.622092        -1.978958        -0.649784
 H         3.952144        -1.284835         1.683347
 H         4.206007         1.864013        -0.597372
 H         2.216834         1.451792        -1.767113
 H         2.936394        -0.211923        -1.775784
 H         3.307944         1.177203         2.097568
