19
Iteration:  4676
 C         0.052856        -0.106448        -0.547681
 C         1.460198        -0.037920        -0.115505
 C         2.301060        -1.334628         0.242008
 C         3.485438        -0.777195         0.921002
 O         4.519518        -0.187212         0.002731
 C         3.595642         0.937911        -0.246790
 C         2.397240         0.599974        -1.208008
 C         3.015325         0.708169         1.216823
 O         1.598839         0.810367         1.069208
 H        -0.205846        -1.112071        -0.959620
 H        -0.785292         0.067020         0.183795
 H        -0.133309         0.479504        -1.465514
 H         1.706049        -1.925229         0.969631
 H         2.649414        -1.917422        -0.619565
 H         4.005565        -1.232906         1.827984
 H         4.227237         1.809659        -0.504596
 H         2.010932         1.471207        -1.632039
 H         2.829162        -0.039025        -1.923709
 H         3.425969         1.326132         2.001033
