19
Iteration:  1780
 C        -0.130347        -0.190605        -0.374426
 C         1.397045        -0.133613        -0.204363
 C         2.282008        -1.331082         0.185845
 C         3.589098        -0.610284         0.900870
 O         4.615029        -0.094779         0.055521
 C         3.601291         0.991768        -0.230661
 C         2.436847         0.506685        -1.213997
 C         2.970738         0.799950         1.102482
 O         1.616187         0.714722         1.026699
 H        -0.269715        -0.604928         0.626281
 H        -0.730965         0.714079        -0.573196
 H        -0.477059        -0.924166        -1.119233
 H         1.952072        -2.027427         0.866426
 H         2.929556        -1.864469        -0.660881
 H         4.037643        -1.109768         1.809339
 H         4.112065         1.822243        -0.588289
 H         2.081397         1.500011        -1.719502
 H         2.936927        -0.227043        -1.880796
 H         3.285960         1.187450         2.099211
