19
Iteration:  4688
 C         0.076221        -0.155622        -0.641662
 C         1.536563        -0.071755        -0.191346
 C         2.185611        -1.336504         0.302087
 C         3.584587        -0.685504         0.980262
 O         4.416779        -0.239330        -0.064518
 C         3.607462         0.969665        -0.216571
 C         2.445462         0.628116        -1.091514
 C         3.030462         0.779992         1.203460
 O         1.610744         0.760197         1.049477
 H        -0.171067        -1.157187        -1.051943
 H        -0.374453        -0.019217         0.346865
 H        -0.194902         0.746874        -1.192491
 H         1.582986        -1.906809         1.009810
 H         2.359193        -2.024030        -0.532151
 H         4.082299        -1.461316         1.571557
 H         4.124273         1.851623        -0.613963
 H         1.948991         1.486892        -1.456157
 H         2.633375         0.043279        -1.929316
 H         3.291035         1.339750         2.118405
