19
Iteration:   337charge 0 multiplicity 1
 C        -0.126515        -0.150653        -0.457279
 C         1.443440        -0.105386        -0.053172
 C         2.400140        -1.400904         0.166068
 C         3.559246        -0.673735         0.937113
 O         4.581151        -0.096153        -0.009915
 C         3.602307         0.964792        -0.279168
 C         2.395209         0.545599        -1.176383
 C         3.069825         0.729963         1.174015
 O         1.541890         0.762471         1.041802
 H        -0.821942        -0.633277         0.272930
 H        -0.549460         0.806935        -0.663147
 H        -0.215276        -0.714693        -1.380399
 H         2.041668        -2.161868         0.855696
 H         2.662376        -1.811671        -0.717439
 H         4.037860        -1.268409         1.711968
 H         4.080268         2.025127        -0.510152
 H         1.966287         1.554204        -1.504287
 H         2.738465        -0.098314        -2.076904
 H         3.287602         1.499229         1.936923
