19
Iteration:   472charge 0 multiplicity 1
 C        -0.069089        -0.159134        -0.287597
 C         1.497345        -0.128397        -0.212177
 C         2.376501        -1.390143         0.240870
 C         3.585385        -0.697313         0.956930
 O         4.518317        -0.135838         0.007493
 C         3.604860         1.082998        -0.262226
 C         2.486526         0.596189        -1.223890
 C         3.002770         0.743573         1.071287
 O         1.508479         0.710103         0.959494
 H        -0.469547        -0.558323         0.636647
 H        -0.338069         0.951164        -0.279354
 H        -0.514702        -0.712535        -1.154317
 H         1.632146        -1.823495         0.861454
 H         2.694405        -2.159794        -0.609392
 H         4.008946        -1.304289         1.752252
 H         4.021063         2.043166        -0.421276
 H         2.040201         1.482093        -1.696056
 H         2.885036        -0.097526        -1.908499
 H         3.120138         1.192409         2.107525
