19
Iteration:  1866
 C         0.261769        -0.456772        -0.696375
 C         1.537326        -0.052240        -0.109703
 C         2.239482        -1.298635         0.441344
 C         3.518512        -0.671999         1.024441
 O         4.351137        -0.247252        -0.292494
 C         3.587487         0.999020        -0.255439
 C         2.310738         0.744341        -1.043654
 C         3.095613         0.786323         1.175203
 O         1.607822         0.864606         1.116482
 H        -0.351461        -1.029013         0.017362
 H        -0.314872         0.454286        -0.926357
 H         0.429275        -1.108970        -1.573442
 H         1.465030        -1.528342         1.238368
 H         2.395221        -2.352527        -0.135443
 H         4.039528        -1.266944         1.808583
 H         4.203449         1.904738        -0.728779
 H         1.740983         1.719081        -1.256205
 H         2.359393         0.215962        -2.018775
 H         3.395932         1.293634         2.123311
