19
Iteration:  3196
 C         0.065337        -0.331942        -0.634159
 C         1.471143        -0.018470        -0.207908
 C         2.161014        -1.317192         0.375352
 C         3.494147        -0.675929         0.932892
 O         4.516603        -0.219257        -0.087190
 C         3.616527         0.997606        -0.229775
 C         2.412341         0.682600        -1.132041
 C         3.077096         0.734917         1.217787
 O         1.648696         0.791117         1.066530
 H        -0.532115        -0.510008         0.308747
 H        -0.365614         0.426339        -1.217525
 H         0.007069        -1.365749        -1.032215
 H         1.450086        -1.531683         1.206436
 H         2.302141        -2.149856        -0.325829
 H         4.085359        -1.204995         1.667003
 H         4.206115         1.914786        -0.591805
 H         1.926040         1.697973        -1.361376
 H         2.578449         0.146846        -2.038535
 H         3.448217         1.343581         2.013856
