19
Iteration:  1006charge 0 multiplicity 1
 C         0.111087        -0.374398        -0.585288
 C         1.513048        -0.057613        -0.110587
 C         2.287256        -1.335685         0.375668
 C         3.581688        -0.742689         0.905687
 O         4.363715        -0.168201        -0.143592
 C         3.590534         1.054309        -0.279289
 C         2.332215         0.727956        -1.127217
 C         3.038864         0.739960         1.224512
 O         1.625857         0.808841         1.069101
 H        -0.409808        -0.816937         0.315169
 H        -0.422763         0.496910        -1.021152
 H         0.107093        -1.177704        -1.350648
 H         1.755700        -1.840563         1.102238
 H         2.584215        -2.180375        -0.336870
 H         4.179301        -1.172202         1.634268
 H         4.310461         1.847065        -0.432340
 H         1.829210         1.661519        -1.338306
 H         2.593871         0.082011        -1.967416
 H         3.495994         1.487711         1.909058
