19
Iteration:   493charge 0 multiplicity 1
 C         0.016932        -0.271671        -0.419420
 C         1.511414        -0.097112        -0.172835
 C         2.223399        -1.351657         0.232768
 C         3.522696        -0.619879         0.909045
 O         4.510236        -0.120673        -0.002124
 C         3.622851         0.918255        -0.268213
 C         2.401433         0.648434        -1.209086
 C         3.038860         0.774955         1.172565
 O         1.597753         0.753288         1.050154
 H        -0.340149        -0.815729         0.427769
 H        -0.481130         0.718833        -0.461043
 H        -0.150913        -0.949000        -1.271451
 H         1.814373        -1.978473         0.951096
 H         2.589797        -1.906024        -0.710299
 H         3.946296        -1.188802         1.695498
 H         4.203159         1.767405        -0.619072
 H         1.948099         1.588709        -1.647734
 H         2.678837        -0.077268        -1.941664
 H         3.330691         1.480466         2.036705
