19
Iteration:  4543charge 0 multiplicity 1
 C         0.020877        -0.171556        -0.501875
 C         1.509783        -0.129301        -0.215504
 C         2.276831        -1.280849         0.231572
 C         3.516955        -0.713512         0.941996
 O         4.418694        -0.287515        -0.095465
 C         3.670456         1.007572        -0.218038
 C         2.467725         0.703046        -1.075123
 C         2.972047         0.766208         1.231664
 O         1.559814         0.738177         0.980900
 H        -0.239396        -0.242034         0.519092
 H        -0.129119         0.797036        -1.050433
 H        -0.402197        -1.112782        -0.891333
 H         1.711307        -1.864861         0.983932
 H         2.726625        -1.927767        -0.539919
 H         4.123706        -1.176018         1.804844
 H         4.300249         1.866340        -0.481807
 H         2.033006         1.599246        -1.386112
 H         3.026826         0.204536        -1.876567
 H         3.286441         1.236389         2.173200
