19
Iteration:  1571
 C         0.238701        -0.423715        -0.621880
 C         1.551415        -0.131175        -0.138694
 C         2.226223        -1.390771         0.511415
 C         3.501298        -0.592141         1.013627
 O         4.310363        -0.296038        -0.256607
 C         3.544884         1.043389        -0.241356
 C         2.305917         0.856704        -1.123326
 C         3.101661         0.812407         1.171288
 O         1.649035         0.796043         1.061044
 H        -0.349926        -1.000517         0.184971
 H        -0.278957         0.463727        -1.007202
 H         0.458485        -1.009040        -1.534202
 H         1.730120        -1.972794         1.242952
 H         2.606672        -2.258713        -0.225400
 H         4.194911        -1.217732         1.581716
 H         4.127973         1.868650        -0.574769
 H         1.762405         1.859566        -1.088458
 H         2.581415         0.537854        -2.162578
 H         3.485547         1.408170         2.021788
