19
Iteration:   111charge 0 multiplicity 1
 C         0.124320        -0.372851        -0.692598
 C         1.493319        -0.056390        -0.161778
 C         2.365519        -1.356024         0.594432
 C         3.544307        -0.663390         0.956842
 O         4.235103        -0.302141        -0.301643
 C         3.636312         1.017642        -0.270792
 C         2.502757         0.863667        -1.128733
 C         3.040598         0.825352         1.193060
 O         1.563322         0.746284         1.128965
 H        -0.369635        -0.918295         0.159755
 H        -0.421662         0.450789        -1.112169
 H         0.198795        -1.084492        -1.517550
 H         1.680628        -1.552886         1.421962
 H         2.340013        -2.373381         0.036094
 H         4.305016        -0.969703         1.673418
 H         4.260485         1.724070        -0.473554
 H         1.827024         1.738622        -1.299305
 H         2.689196         0.330447        -2.003110
 H         3.539472         1.228017         2.150953
