19
Iteration:  1498
 C        -0.042892        -0.212247        -0.331608
 C         1.552897        -0.160280        -0.231350
 C         2.401589        -1.404963         0.247303
 C         3.546422        -0.631709         0.924462
 O         4.540781        -0.125003        -0.028881
 C         3.587308         0.987423        -0.268304
 C         2.436047         0.576561        -1.238945
 C         2.953500         0.798834         1.161285
 O         1.508158         0.760870         1.032232
 H        -0.420744        -0.669746         0.584397
 H        -0.335515         0.831525        -0.502665
 H        -0.487089        -0.791073        -1.161883
 H         1.748131        -2.053713         0.852443
 H         2.727443        -2.040991        -0.668543
 H         4.127428        -1.054718         1.839728
 H         4.132625         1.916947        -0.407455
 H         1.910602         1.518563        -1.446714
 H         2.806765         0.082065        -2.133514
 H         3.107468         1.418126         1.998493
