19
Iteration:  3319charge 0 multiplicity 1
 C         0.205773        -0.405704        -0.696977
 C         1.581631        -0.016115        -0.177093
 C         2.238352        -1.324277         0.479750
 C         3.515835        -0.706778         1.027272
 O         4.312292        -0.339049        -0.260068
 C         3.638267         0.946611        -0.242690
 C         2.344995         0.817978        -1.114828
 C         3.046659         0.841749         1.207157
 O         1.595666         0.830532         1.127942
 H        -0.398103        -1.017682        -0.091082
 H        -0.369080         0.550219        -0.867763
 H         0.276117        -0.899472        -1.699438
 H         1.542854        -1.570022         1.324886
 H         2.535211        -2.044778        -0.275254
 H         4.033676        -1.146671         1.894803
 H         4.318556         1.839342        -0.442959
 H         1.916742         1.744588        -1.315773
 H         2.570069         0.188298        -2.100930
 H         3.500703         1.423668         2.059768
