19
Iteration:  2933charge 0 multiplicity 1
 C        -0.072397        -0.215079        -0.493336
 C         1.453922         0.003221        -0.177874
 C         2.314613        -1.342398         0.230900
 C         3.533529        -0.719929         0.921870
 O         4.525807        -0.234743         0.019993
 C         3.590022         0.973058        -0.205656
 C         2.461084         0.527370        -1.162734
 C         3.058751         0.771133         1.195948
 O         1.575432         0.899968         0.995943
 H        -0.458761        -0.984830         0.198906
 H        -0.722659         0.639149        -0.240440
 H        -0.436515        -0.632648        -1.379711
 H         1.836443        -2.010792         0.955273
 H         2.618760        -1.996898        -0.680901
 H         4.120535        -1.286253         1.694560
 H         4.228295         1.745348        -0.789716
 H         2.137272         1.354987        -1.834158
 H         2.936049        -0.153372        -1.760672
 H         3.363669         1.494869         2.039980
