19
Iteration:  2720charge 0 multiplicity 1
 C         0.174839        -0.330448        -0.601295
 C         1.582924        -0.039647        -0.134843
 C         2.331098        -1.323150         0.422412
 C         3.503011        -0.660706         1.070750
 O         4.188989        -0.381629        -0.210213
 C         3.634267         0.989286        -0.331413
 C         2.411114         0.877344        -1.166320
 C         3.019325         0.793425         1.247140
 O         1.631077         0.776393         1.059676
 H        -0.572859        -0.720477         0.200706
 H        -0.389603         0.452326        -1.070326
 H         0.352191        -1.222922        -1.279416
 H         1.652954        -1.914377         1.126692
 H         2.777160        -2.020990        -0.293426
 H         4.180177        -1.163806         1.735949
 H         4.301128         1.795030        -0.572184
 H         1.945927         1.785470        -1.349689
 H         2.666719         0.434453        -2.185094
 H         3.394420         1.359153         2.181200
