19
Iteration:  2225charge 0 multiplicity 1
 C        -0.020156        -0.194612        -0.325315
 C         1.467590        -0.125119        -0.150931
 C         2.335931        -1.311607         0.115913
 C         3.569487        -0.726680         0.901710
 O         4.575108        -0.042704         0.076209
 C         3.634336         0.889542        -0.301903
 C         2.465961         0.513815        -1.221884
 C         2.948197         0.843823         1.172148
 O         1.534559         0.776356         1.011045
 H        -0.571358        -0.529260         0.539780
 H        -0.548957         0.803662        -0.443701
 H        -0.366981        -0.805598        -1.231488
 H         1.775421        -1.738406         1.043183
 H         2.496527        -2.171115        -0.572100
 H         3.946223        -1.483765         1.585502
 H         4.054330         1.884481        -0.660390
 H         1.934423         1.381518        -1.830814
 H         2.675264        -0.291420        -1.940655
 H         3.357759         1.322796         2.004298
