19
Iteration:   177
 C        -0.084238        -0.177303        -0.344562
 C         1.487362        -0.141777        -0.201747
 C         2.323291        -1.279333         0.197841
 C         3.535861        -0.642716         0.985609
 O         4.550896        -0.133604         0.037687
 C         3.649552         0.979892        -0.270183
 C         2.437229         0.558888        -1.240368
 C         3.003956         0.783745         1.108541
 O         1.570498         0.687855         0.996766
 H        -0.437124        -0.704898         0.594963
 H        -0.508396         0.826401        -0.425355
 H        -0.603119        -0.763166        -1.139210
 H         1.830186        -1.958427         0.934749
 H         2.790621        -1.901304        -0.706925
 H         3.938358        -1.384412         1.718489
 H         4.000807         1.900445        -0.435343
 H         2.102805         1.524642        -1.698441
 H         2.744922        -0.009104        -2.075739
 H         3.283375         1.399707         2.023619
