19
Iteration:  3042charge 0 multiplicity 1
 C         0.023500        -0.374671        -0.736867
 C         1.483540         0.013141        -0.107851
 C         2.211516        -1.306925         0.493580
 C         3.557926        -0.732618         0.968653
 O         4.421723        -0.265045        -0.159802
 C         3.635079         0.971591        -0.232042
 C         2.400218         0.760161        -1.100842
 C         3.102271         0.696550         1.179149
 O         1.625817         0.887719         1.037582
 H        -0.521321        -0.638234         0.200533
 H        -0.501667         0.323007        -1.400379
 H         0.306450        -1.241235        -1.262556
 H         1.602655        -1.609501         1.353700
 H         2.270475        -2.215369        -0.177366
 H         4.309303        -1.276800         1.583988
 H         4.227674         1.900505        -0.568220
 H         2.035533         1.758839        -1.371083
 H         2.531582         0.193336        -1.921262
 H         3.326750         1.294685         2.115787
