19
Iteration:  1373charge 0 multiplicity 1
 C         0.021680        -0.378512        -0.564947
 C         1.466382        -0.097857        -0.131279
 C         2.327310        -1.286417         0.343021
 C         3.571649        -0.660478         0.958279
 O         4.480304        -0.209888        -0.141978
 C         3.589119         0.977349        -0.242072
 C         2.381645         0.687833        -1.152247
 C         3.008819         0.813299         1.164008
 O         1.591492         0.819831         1.095878
 H        -0.520188        -0.894259         0.285018
 H        -0.495989         0.626041        -0.656954
 H        -0.104201        -0.923345        -1.533291
 H         1.787731        -1.889023         1.143152
 H         2.629101        -2.034024        -0.430251
 H         4.223051        -1.282100         1.599911
 H         4.247293         1.795362        -0.644570
 H         1.943599         1.630736        -1.431619
 H         2.648838         0.041440        -1.979420
 H         3.408526         1.287001         2.053646
