19
Iteration:  4532
 C         0.032132        -0.151524        -0.389807
 C         1.511609        -0.048665        -0.235844
 C         2.316392        -1.405000         0.232846
 C         3.471253        -0.705969         0.956329
 O         4.498061        -0.244466        -0.084163
 C         3.649574         0.989095        -0.152609
 C         2.527539         0.711571        -1.197453
 C         2.944975         0.760178         1.200313
 O         1.550856         0.730371         0.981963
 H        -0.391325         0.131432         0.530642
 H        -0.504365         0.668572        -0.963295
 H        -0.387612        -1.112663        -0.719786
 H         1.625426        -2.056171         0.795361
 H         2.726723        -1.990531        -0.608169
 H         3.798952        -1.487369         1.708661
 H         4.219292         1.908727        -0.301351
 H         2.092165         1.596558        -1.578247
 H         2.800919         0.097951        -2.071441
 H         3.115610         1.444534         2.038865
