19
Iteration:  3109
 C        -0.078428        -0.197327        -0.474093
 C         1.421390        -0.069395        -0.175339
 C         2.264412        -1.279363         0.297063
 C         3.539940        -0.704296         0.929870
 O         4.627792        -0.122409         0.002414
 C         3.654770         0.910758        -0.244317
 C         2.474832         0.506056        -1.147840
 C         2.973367         0.678389         1.157018
 O         1.568042         0.854885         0.951084
 H        -0.627665        -0.901052         0.226880
 H        -0.530887         0.728593        -0.238868
 H        -0.353729        -0.317273        -1.538989
 H         1.786663        -1.871303         1.108036
 H         2.627839        -1.943651        -0.510948
 H         3.947157        -1.290941         1.754602
 H         4.141654         1.947881        -0.400714
 H         2.075505         1.397849        -1.560006
 H         2.701916        -0.121875        -1.953468
 H         3.416513         1.291681         1.911549
