19
Iteration:   880charge 0 multiplicity 1
 C         0.025785        -0.254889        -0.430791
 C         1.500713        -0.114191        -0.161001
 C         2.332688        -1.431581         0.280380
 C         3.556489        -0.630766         0.956614
 O         4.502541        -0.144648        -0.059746
 C         3.606470         0.992965        -0.291886
 C         2.350737         0.674950        -1.139787
 C         2.962797         0.806735         1.172101
 O         1.630672         0.740094         0.980840
 H        -0.553881        -0.531184         0.445895
 H        -0.323627         0.726473        -0.636677
 H        -0.177362        -1.014218        -1.157311
 H         1.690149        -2.011588         1.017332
 H         2.603087        -2.054741        -0.508698
 H         4.190284        -1.358192         1.586200
 H         4.157528         1.855717        -0.372758
 H         1.846095         1.600282        -1.535116
 H         2.563841         0.118286        -2.098322
 H         3.165265         1.400029         2.056326
