19
Iteration:  3999
 C         0.098084        -0.260528        -0.613081
 C         1.517501        -0.063150        -0.191643
 C         2.217360        -1.295307         0.425827
 C         3.543822        -0.704009         0.974970
 O         4.427509        -0.265726        -0.130765
 C         3.629722         1.000738        -0.209825
 C         2.393024         0.713621        -1.167292
 C         3.043439         0.676021         1.185923
 O         1.610186         0.794835         1.019681
 H        -0.446258        -1.112530        -0.234114
 H        -0.438234         0.582802        -0.350438
 H         0.130737        -0.205766        -1.724919
 H         1.678617        -1.532134         1.385069
 H         2.272216        -2.208760        -0.188246
 H         4.152559        -1.221748         1.726440
 H         4.120883         1.958226        -0.156391
 H         1.926139         1.723129        -1.287447
 H         2.693157         0.167605        -2.113896
 H         3.309510         1.345115         2.022187
