19
Iteration:   491
 C         0.009105        -0.254079        -0.398268
 C         1.517839        -0.105768        -0.185637
 C         2.230005        -1.350918         0.222286
 C         3.496814        -0.627286         0.898542
 O         4.522615        -0.121459         0.007514
 C         3.614860         0.935937        -0.256961
 C         2.407104         0.636621        -1.224723
 C         3.010960         0.774784         1.179481
 O         1.613772         0.741404         1.048004
 H        -0.331753        -0.809061         0.446759
 H        -0.449226         0.702584        -0.443291
 H        -0.187031        -0.912895        -1.227317
 H         1.915000        -1.970270         0.985605
 H         2.575414        -1.895359        -0.635679
 H         3.926960        -1.159399         1.677573
 H         4.254573         1.814103        -0.617837
 H         1.914742         1.577439        -1.702862
 H         2.719386        -0.089494        -1.997626
 H         3.356739         1.488689         1.976013
