19
Iteration:  3845
 C         0.031129        -0.206630        -0.492050
 C         1.510284        -0.081322        -0.140463
 C         2.287431        -1.305809         0.344428
 C         3.504790        -0.699934         0.993653
 O         4.447194        -0.300900        -0.064320
 C         3.633777         0.961301        -0.263485
 C         2.495768         0.750314        -1.183219
 C         2.958568         0.774034         1.174065
 O         1.594498         0.777354         0.964835
 H        -0.575504        -0.949242         0.087715
 H        -0.433252         0.710925        -0.679006
 H        -0.116083        -0.634193        -1.490861
 H         1.637090        -1.625631         1.193627
 H         2.626145        -2.184468        -0.247046
 H         4.068323        -1.386579         1.676345
 H         4.241945         1.825416        -0.440331
 H         2.111028         1.687191        -1.530477
 H         2.818066         0.067002        -2.090566
 H         3.210779         1.336963         2.080492
