19
Iteration:  1244charge 0 multiplicity 1
 C         0.125728        -0.433475        -0.633388
 C         1.487112        -0.116097        -0.236602
 C         2.305114        -1.351522         0.473771
 C         3.484951        -0.656702         0.939333
 O         4.366474        -0.267096        -0.234650
 C         3.590728         1.038041        -0.223215
 C         2.363650         0.773793        -1.084509
 C         3.061697         0.870544         1.216360
 O         1.652335         0.776936         1.121542
 H        -0.325372        -1.088938         0.094709
 H        -0.405315         0.486526        -0.743381
 H         0.216828        -0.898448        -1.583872
 H         1.710847        -1.684686         1.257263
 H         2.381363        -2.160409        -0.295642
 H         4.249370        -0.922860         1.720442
 H         4.188991         1.796039        -0.518035
 H         1.836926         1.724400        -1.281358
 H         2.643944         0.374268        -2.071594
 H         3.487169         1.494365         1.973343
