19
Iteration:  3972
 C        -0.012314        -0.135396        -0.493009
 C         1.451688        -0.056253        -0.134265
 C         2.323002        -1.383230         0.191091
 C         3.497554        -0.684641         0.940511
 O         4.491302        -0.221802         0.054376
 C         3.709404         0.977216        -0.315895
 C         2.461936         0.532880        -1.112991
 C         2.970966         0.817452         1.125876
 O         1.573908         0.775266         1.062451
 H        -0.654861        -0.891419         0.120461
 H        -0.690453         0.826715        -0.262794
 H        -0.076509        -0.256109        -1.579975
 H         1.916144        -2.243409         0.753457
 H         2.688129        -1.870295        -0.738244
 H         3.970484        -1.263726         1.770751
 H         4.261137         1.926021        -0.621065
 H         2.120061         1.508867        -1.504856
 H         2.658393        -0.110940        -2.003082
 H         3.255208         1.475999         1.951557
