19
Iteration:  4580charge 0 multiplicity 1
 C         0.180518        -0.263359        -0.774492
 C         1.492830        -0.029706        -0.070474
 C         2.177055        -1.304938         0.435835
 C         3.543053        -0.731370         0.951857
 O         4.467265        -0.294293        -0.135912
 C         3.598584         0.953302        -0.282785
 C         2.345891         0.800492        -1.043744
 C         3.082030         0.714816         1.131822
 O         1.595834         0.806423         1.168719
 H        -0.482731        -1.069834        -0.365820
 H        -0.586716         0.517170        -0.840445
 H         0.470359        -0.477286        -1.797713
 H         1.616555        -1.764251         1.262632
 H         2.142516        -2.003114        -0.404108
 H         4.116382        -1.312122         1.671470
 H         4.228636         1.742456        -0.692325
 H         1.738843         1.782042        -1.359603
 H         2.526595         0.254244        -1.977732
 H         3.499573         1.239968         1.975386
