19
Iteration:  2998
 C         0.101555        -0.292125        -0.678823
 C         1.518220        -0.020897        -0.106309
 C         2.320727        -1.328499         0.478222
 C         3.524121        -0.685763         1.053135
 O         4.313916        -0.298608        -0.207912
 C         3.629932         0.885390        -0.276339
 C         2.381242         0.774183        -1.122794
 C         3.069839         0.800080         1.182942
 O         1.602492         0.814562         1.036372
 H        -0.646870        -0.590662         0.076423
 H        -0.164073         0.693262        -1.104908
 H         0.249073        -1.016238        -1.451385
 H         1.724535        -1.970614         1.119302
 H         2.701954        -2.089341        -0.274762
 H         3.973792        -1.176260         1.948311
 H         4.349528         1.746626        -0.539748
 H         1.837998         1.690081        -1.345074
 H         2.594117         0.246665        -1.959591
 H         3.480860         1.396871         2.077975
