19
Iteration:  4750
 C         0.118378        -0.334784        -0.678712
 C         1.433245        -0.025860        -0.102796
 C         2.180852        -1.288203         0.330208
 C         3.433527        -0.665615         0.945513
 O         4.395923        -0.350209        -0.070914
 C         3.696316         0.976323        -0.286334
 C         2.443155         0.704092        -1.086759
 C         3.134301         0.838679         1.183889
 O         1.613323         0.838781         1.099554
 H         0.043967        -0.097824        -1.717865
 H        -0.215799        -1.403985        -0.444331
 H        -0.704895         0.273689        -0.276280
 H         1.592184        -1.868061         1.096505
 H         2.519028        -1.860627        -0.552732
 H         3.720021        -1.323509         1.862895
 H         4.342714         1.809140        -0.599884
 H         2.059929         1.731068        -1.373123
 H         2.846591         0.101037        -1.956196
 H         3.685011         1.143032         2.011430
