19
Iteration:  2834
 C        -0.043164        -0.260354        -0.477226
 C         1.470435        -0.071679        -0.200960
 C         2.257392        -1.251189         0.299663
 C         3.559991        -0.667324         0.963964
 O         4.505852        -0.219097         0.000313
 C         3.602285         0.918859        -0.278751
 C         2.461997         0.692894        -1.255857
 C         3.046722         0.742194         1.178711
 O         1.624370         0.762860         1.059767
 H        -0.602985        -0.389406         0.422290
 H        -0.548261         0.566307        -1.041031
 H        -0.228957        -1.134559        -1.099234
 H         1.737820        -1.839023         1.074479
 H         2.445024        -2.005692        -0.531354
 H         3.966384        -1.377424         1.743650
 H         4.185315         1.859818        -0.519799
 H         2.017547         1.702220        -1.523415
 H         2.696915         0.153249        -2.131498
 H         3.301983         1.298668         2.056510
