19
Iteration:  4701charge 0 multiplicity 1
 C         0.081662        -0.198349        -0.608565
 C         1.520963        -0.132708        -0.171839
 C         2.204549        -1.369433         0.434135
 C         3.480398        -0.688065         0.961897
 O         4.378599        -0.289434        -0.183377
 C         3.725901         1.005456        -0.214514
 C         2.493062         0.772334        -1.111098
 C         2.980597         0.790603         1.190270
 O         1.610126         0.719716         1.026220
 H        -0.102980        -0.946768        -1.413030
 H        -0.595001        -0.412895         0.165255
 H        -0.247312         0.705662        -1.112838
 H         1.558067        -1.645747         1.246387
 H         2.483504        -2.172866        -0.233720
 H         3.986263        -1.139282         1.757898
 H         4.435352         1.838843        -0.244471
 H         1.956436         1.730643        -1.273830
 H         2.845912         0.297083        -2.012962
 H         3.329920         1.469979         2.032362
