19
Iteration:  1675charge 0 multiplicity 1
 C         0.041489        -0.362115        -0.557056
 C         1.538622        -0.094917        -0.124488
 C         2.311951        -1.372408         0.411607
 C         3.572964        -0.630271         0.936471
 O         4.364274        -0.257147        -0.152139
 C         3.606043         1.026169        -0.264674
 C         2.406344         0.800235        -1.169075
 C         3.014875         0.840112         1.191375
 O         1.620699         0.735785         1.070294
 H        -0.537348        -0.972618         0.124530
 H        -0.551603         0.545534        -0.761443
 H         0.095671        -1.011662        -1.435691
 H         1.673576        -1.836001         1.267580
 H         2.609769        -2.066750        -0.326209
 H         4.210543        -1.169972         1.637050
 H         4.430959         1.739053        -0.650858
 H         1.792286         1.613230        -1.450505
 H         2.640676         0.250867        -2.055407
 H         3.283761         1.544064         2.035336
