19
Iteration:  2496charge 0 multiplicity 1
 C         0.042794        -0.230772        -0.401602
 C         1.495649        -0.043967        -0.162052
 C         2.261420        -1.355003         0.235556
 C         3.575764        -0.696506         0.949804
 O         4.486954        -0.157013         0.015753
 C         3.559224         0.932108        -0.277894
 C         2.426479         0.563156        -1.217458
 C         3.024925         0.713376         1.154726
 O         1.576670         0.897906         1.027802
 H        -0.391200        -0.784058         0.398405
 H        -0.516388         0.688212        -0.772313
 H        -0.192636        -0.923869        -1.298396
 H         1.675124        -1.925010         1.001803
 H         2.519045        -1.949240        -0.638149
 H         4.201199        -1.306112         1.672073
 H         4.126827         1.898328        -0.469885
 H         1.882163         1.389504        -1.681286
 H         2.741687        -0.144787        -1.939006
 H         3.617486         1.395656         1.825557
