19
Iteration:  2056charge 0 multiplicity 1
 C        -0.079638        -0.232236        -0.463562
 C         1.490192        -0.088628        -0.134819
 C         2.353355        -1.373814         0.276795
 C         3.564114        -0.712575         0.871251
 O         4.551037        -0.076507        -0.024885
 C         3.621223         0.991753        -0.303319
 C         2.457053         0.550681        -1.174962
 C         2.949016         0.766836         1.171806
 O         1.557402         0.825249         1.084815
 H        -0.461426        -0.723515         0.449845
 H        -0.611168         0.659226        -0.636623
 H        -0.408048        -0.752612        -1.326714
 H         1.886001        -2.047304         1.008393
 H         2.666467        -2.025676        -0.601843
 H         4.035736        -1.391709         1.587150
 H         4.287537         1.722648        -0.584694
 H         1.943065         1.401805        -1.645970
 H         2.583966        -0.228389        -1.973373
 H         3.398510         1.365699         2.014213
