19
Iteration:  3541
 C         0.052231        -0.174708        -0.454601
 C         1.501443        -0.038097        -0.137473
 C         2.299070        -1.324350         0.256465
 C         3.492590        -0.697065         0.930282
 O         4.531855        -0.151087         0.024679
 C         3.635701         0.928249        -0.256991
 C         2.414940         0.594419        -1.098756
 C         2.986980         0.726331         1.097168
 O         1.553727         0.766318         0.970550
 H        -0.536738        -0.209040         0.500781
 H        -0.190529         0.707672        -0.994791
 H        -0.229918        -1.037447        -1.028318
 H         1.802746        -2.096603         0.856321
 H         2.548204        -1.886932        -0.683937
 H         4.011117        -1.192986         1.793896
 H         4.146402         1.777523        -0.683915
 H         2.084534         1.519583        -1.628981
 H         2.594202        -0.061705        -1.968705
 H         3.124090         1.235696         2.048016
