19
Iteration:  3373charge 0 multiplicity 1
 C         0.030995        -0.141078        -0.361025
 C         1.453964        -0.063936        -0.215693
 C         2.268124        -1.302426         0.198377
 C         3.560816        -0.723314         0.906865
 O         4.527337        -0.136171         0.072412
 C         3.575968         0.979578        -0.235361
 C         2.450639         0.515513        -1.219132
 C         2.945639         0.746491         1.183383
 O         1.606700         0.756593         0.978114
 H        -0.527874        -0.210421         0.509036
 H        -0.402700         0.647750        -1.008034
 H        -0.154383        -0.982361        -1.049846
 H         1.891433        -1.974395         0.984269
 H         2.550830        -1.776801        -0.724148
 H         3.890616        -1.303727         1.759377
 H         4.147024         1.913075        -0.455139
 H         2.039256         1.293992        -1.813286
 H         2.963795        -0.231681        -1.969230
 H         3.340563         1.344999         2.037176
