19
Iteration:   715charge 0 multiplicity 1
 C         0.146586        -0.400177        -0.531853
 C         1.576540        -0.068244        -0.113084
 C         2.268190        -1.308247         0.419765
 C         3.568032        -0.671314         0.904118
 O         4.349188        -0.239118        -0.173503
 C         3.599805         1.004070        -0.284009
 C         2.386331         0.768602        -1.114960
 C         2.972463         0.790266         1.188795
 O         1.625227         0.777758         1.035517
 H        -0.555644        -0.704564         0.334922
 H        -0.263410         0.544979        -0.908036
 H         0.114163        -1.175058        -1.330134
 H         1.646743        -1.765396         1.245271
 H         2.448821        -2.117093        -0.332031
 H         4.090361        -1.361976         1.713327
 H         4.232250         1.830354        -0.492076
 H         1.686682         1.677480        -1.248754
 H         2.781715         0.285668        -2.117300
 H         3.328425         1.563411         1.878739
