19
Iteration:  4472charge 0 multiplicity 1
 C         0.072410        -0.245171        -0.709510
 C         1.546624        -0.030404        -0.118853
 C         2.284189        -1.360508         0.398883
 C         3.505582        -0.711328         0.972093
 O         4.306351        -0.312879        -0.139261
 C         3.618411         1.023826        -0.252471
 C         2.457667         0.802954        -1.093514
 C         3.057207         0.710072         1.210757
 O         1.611812         0.775576         1.079366
 H        -0.615363        -0.085207         0.190708
 H        -0.007752         0.562776        -1.445747
 H        -0.144732        -1.265343        -1.048367
 H         1.788367        -1.919197         1.203447
 H         2.622217        -1.969480        -0.458954
 H         4.146089        -1.319965         1.593776
 H         4.339730         1.800921        -0.595009
 H         2.000481         1.801930        -1.316616
 H         2.633790         0.194797        -1.951186
 H         3.352496         1.294470         2.063789
