19
Iteration:  1018charge 0 multiplicity 1
 C         0.053108        -0.305896        -0.488484
 C         1.459020        -0.071574        -0.081593
 C         2.346280        -1.351603         0.309604
 C         3.552154        -0.629147         0.905286
 O         4.488263        -0.149266        -0.099966
 C         3.619241         0.960776        -0.248192
 C         2.367325         0.657875        -1.073256
 C         3.001239         0.789592         1.135450
 O         1.603356         0.738619         1.009549
 H        -0.679499        -0.633103         0.336566
 H        -0.395857         0.627464        -0.875860
 H         0.115290        -1.047443        -1.310687
 H         1.911172        -1.912479         1.078715
 H         2.430285        -1.802094        -0.696847
 H         3.975063        -1.250823         1.593351
 H         4.083925         1.900964        -0.659455
 H         1.888788         1.533388        -1.456784
 H         2.535842         0.106511        -2.011562
 H         3.209620         1.224169         2.110046
