19
Iteration:  1320
 C        -0.057674        -0.201258        -0.376849
 C         1.517327        -0.130534        -0.173788
 C         2.393768        -1.399912         0.253977
 C         3.568184        -0.605682         0.992076
 O         4.543995        -0.172471        -0.068890
 C         3.568531         1.006824        -0.218976
 C         2.400162         0.640694        -1.193119
 C         2.934576         0.752024         1.152656
 O         1.565576         0.733058         0.945977
 H        -0.498990        -0.439299         0.604682
 H        -0.515429         0.785057        -0.561274
 H        -0.189545        -0.880940        -1.201198
 H         1.815171        -1.984703         0.940179
 H         2.823841        -2.077762        -0.569315
 H         4.323594        -1.150471         1.693140
 H         4.148796         1.869874        -0.393580
 H         1.724654         1.433003        -1.484571
 H         2.750110         0.038950        -2.029825
 H         3.283217         1.464880         1.897210
