19
Iteration:  2622charge 0 multiplicity 1
 C         0.099513        -0.281457        -0.545213
 C         1.540730        -0.095009        -0.198707
 C         2.327948        -1.355671         0.388074
 C         3.540012        -0.700330         1.016638
 O         4.354869        -0.295417        -0.154055
 C         3.572672         0.958047        -0.224452
 C         2.367035         0.758331        -1.178138
 C         3.049855         0.821009         1.165984
 O         1.629860         0.821852         1.058642
 H        -0.497376        -0.935361         0.158054
 H        -0.461766         0.624119        -0.566973
 H         0.039903        -0.635242        -1.565464
 H         1.730497        -1.817859         1.230482
 H         2.628096        -2.215915        -0.237118
 H         4.024747        -1.355210         1.755298
 H         4.297231         1.683719        -0.472203
 H         1.919549         1.718156        -1.354544
 H         2.634447         0.354137        -2.224769
 H         3.271553         1.670578         1.876682
