19
Iteration:  2738
 C         0.261448        -0.411517        -0.680301
 C         1.528880        -0.030717        -0.137287
 C         2.231277        -1.357151         0.515459
 C         3.519518        -0.729461         0.974251
 O         4.291730        -0.326885        -0.214754
 C         3.625016         0.973545        -0.191658
 C         2.294228         0.855638        -1.091895
 C         3.072681         0.790172         1.158068
 O         1.674648         0.863675         1.025948
 H        -0.378019        -0.986111         0.027048
 H        -0.386469         0.472630        -0.954886
 H         0.326090        -0.907039        -1.618464
 H         1.569136        -1.628414         1.300497
 H         2.233743        -2.252695        -0.164942
 H         4.096097        -1.197302         1.780585
 H         4.361881         1.809900        -0.429267
 H         1.715342         1.852859        -1.143518
 H         2.430386         0.492017        -2.090515
 H         3.489585         1.442620         1.916233
