19
Iteration:  2540
 C         0.021744        -0.166599        -0.419055
 C         1.497239        -0.166626        -0.206295
 C         2.295726        -1.440713         0.331447
 C         3.568404        -0.620496         0.972180
 O         4.498583        -0.230171        -0.052076
 C         3.602777         0.949176        -0.289251
 C         2.434739         0.688484        -1.173015
 C         2.931684         0.840511         1.092220
 O         1.609558         0.735483         1.018896
 H        -0.539933        -0.419094         0.459704
 H        -0.245310         0.909582        -0.791324
 H        -0.439504        -0.928266        -1.148524
 H         1.750588        -1.983013         1.125216
 H         2.575416        -2.074997        -0.528975
 H         4.015938        -1.150603         1.876150
 H         4.268142         1.831758        -0.612685
 H         2.120178         1.744888        -1.265135
 H         2.710599         0.236295        -2.094765
 H         3.145033         1.512283         1.973670
