19
Iteration:  3842charge 0 multiplicity 1
 C         0.011694        -0.196337        -0.472091
 C         1.506946        -0.082508        -0.159015
 C         2.269628        -1.318016         0.339108
 C         3.515978        -0.720746         0.999213
 O         4.450022        -0.286279        -0.045652
 C         3.633434         0.996455        -0.269701
 C         2.512509         0.731290        -1.233882
 C         2.975983         0.753878         1.191529
 O         1.595966         0.773742         0.961725
 H        -0.489942        -0.980059         0.094747
 H        -0.491911         0.761133        -0.608201
 H        -0.189684        -0.611726        -1.424565
 H         1.609389        -1.646428         1.194877
 H         2.683021        -2.137973        -0.299130
 H         3.970825        -1.383969         1.774502
 H         4.247283         1.915902        -0.343794
 H         2.039730         1.675665        -1.609393
 H         2.845294         0.035923        -2.052290
 H         3.243602         1.377096         2.036213
