19
Iteration:  4376charge 0 multiplicity 1
 C        -0.083359        -0.095119        -0.380117
 C         1.500408        -0.116790        -0.224722
 C         2.343487        -1.397045         0.247604
 C         3.573783        -0.652308         0.965174
 O         4.537000        -0.263534        -0.011489
 C         3.686282         0.957128        -0.253302
 C         2.503276         0.696901        -1.200908
 C         2.951765         0.741083         1.210380
 O         1.504547         0.743560         0.924348
 H        -0.680090        -0.914936         0.135743
 H        -0.308465         0.819246         0.069968
 H        -0.361884        -0.132574        -1.409904
 H         1.590968        -1.732314         0.982047
 H         2.493760        -2.106347        -0.575051
 H         3.851094        -1.231648         1.810563
 H         4.398801         1.840480        -0.341431
 H         2.086383         1.588771        -1.577740
 H         2.736653        -0.009593        -2.028238
 H         3.141390         1.361952         2.118068
