19
Iteration:  1665
 C        -0.010614        -0.312008        -0.512980
 C         1.471098        -0.118216        -0.145759
 C         2.366806        -1.335260         0.354036
 C         3.587318        -0.606733         0.989339
 O         4.407326        -0.196509        -0.160368
 C         3.670497         0.967491        -0.291517
 C         2.418386         0.707069        -1.143828
 C         3.014309         0.790155         1.137208
 O         1.535752         0.719732         1.047599
 H        -0.370878        -0.705609         0.418731
 H        -0.478851         0.667639        -0.618376
 H        -0.200493        -0.871900        -1.417533
 H         1.721645        -1.994425         1.074959
 H         2.762650        -2.051318        -0.245247
 H         4.099876        -1.042249         1.823123
 H         4.223808         2.028691        -0.271236
 H         2.021762         1.675802        -1.417572
 H         2.798657         0.187409        -2.014383
 H         3.431116         1.396076         1.991546
