19
Iteration:  4053
 C         0.147746        -0.313537        -0.679327
 C         1.494752         0.020786        -0.106909
 C         2.272046        -1.289393         0.310116
 C         3.487493        -0.725733         0.999608
 O         4.406701        -0.320669        -0.061169
 C         3.602115         0.906204        -0.301698
 C         2.293779         0.814361        -1.094199
 C         3.076767         0.769842         1.191187
 O         1.638336         0.821253         1.085080
 H        -0.412141        -0.773015         0.141716
 H        -0.353399         0.468323        -1.160072
 H         0.327656        -1.168183        -1.393952
 H         1.785702        -1.945130         1.076256
 H         2.518471        -1.817866        -0.624310
 H         4.052939        -1.333755         1.694233
 H         4.210852         1.749008        -0.543321
 H         1.904057         1.813756        -1.323432
 H         2.673818         0.223513        -1.978697
 H         3.388118         1.360007         2.072983
