19
Iteration:  2782charge 0 multiplicity 1
 C         0.026723        -0.204686        -0.514261
 C         1.505984        -0.063262        -0.150289
 C         2.283185        -1.323054         0.299392
 C         3.555680        -0.704302         1.002067
 O         4.507666        -0.206640        -0.006658
 C         3.543831         0.989184        -0.286799
 C         2.402750         0.611228        -1.180016
 C         3.029938         0.764988         1.110065
 O         1.626441         0.786117         1.042766
 H        -0.456911        -1.001304         0.153800
 H        -0.537877         0.729892        -0.401176
 H        -0.129630        -0.425660        -1.547721
 H         1.613233        -1.882856         0.923952
 H         2.541913        -2.018217        -0.540271
 H         3.938713        -1.326172         1.813992
 H         4.125798         1.933987        -0.506260
 H         1.814157         1.405391        -1.775214
 H         2.759939        -0.177694        -1.855616
 H         3.329958         1.426759         1.962517
