19
Iteration:  2664charge 0 multiplicity 1
 C        -0.056331        -0.104677        -0.404679
 C         1.466349        -0.122051        -0.199578
 C         2.278480        -1.346637         0.205415
 C         3.616830        -0.747939         0.906306
 O         4.585838        -0.075518         0.092808
 C         3.612680         0.914561        -0.255395
 C         2.386306         0.527032        -1.247542
 C         2.974036         0.778696         1.123139
 O         1.586316         0.777458         1.043381
 H        -0.534380        -0.401809         0.636102
 H        -0.409888         0.883135        -0.746184
 H        -0.530645        -0.711911        -1.181943
 H         1.702290        -1.868580         1.000756
 H         2.540493        -2.108970        -0.587518
 H         4.189206        -1.381683         1.545504
 H         3.970570         1.954126        -0.337756
 H         1.982391         1.315637        -1.821022
 H         2.738228        -0.283601        -1.905072
 H         3.578126         1.362865         1.853634
