19
Iteration:    34
 C        -0.087095        -0.217586        -0.279833
 C         1.418088        -0.076806        -0.295298
 C         2.373857        -1.360593         0.219079
 C         3.491834        -0.636907         0.925275
 O         4.510108        -0.127995         0.025619
 C         3.703006         0.977407        -0.223623
 C         2.456554         0.608136        -1.168294
 C         2.961799         0.735449         1.134300
 O         1.606878         0.738524         0.894544
 H        -0.184849        -0.754516         0.675702
 H        -0.608948         0.719957        -0.150685
 H        -0.508757        -0.865106        -1.036156
 H         1.853045        -1.903215         1.003144
 H         2.838443        -2.072641        -0.508423
 H         4.030883        -1.087548         1.737312
 H         4.194155         1.877347        -0.481849
 H         2.094132         1.524673        -1.675465
 H         2.738228        -0.079738        -1.934091
 H         3.182783         1.300545         2.064213
