19
Iteration:  1701
 C         0.246730        -0.492044        -0.741038
 C         1.529332        -0.029551        -0.033843
 C         2.201818        -1.300782         0.493658
 C         3.537181        -0.639980         0.903938
 O         4.334728        -0.239061        -0.253021
 C         3.570530         0.934628        -0.243507
 C         2.342956         0.808472        -1.027134
 C         3.117810         0.731305         1.148405
 O         1.588614         0.899715         1.116925
 H        -0.293008        -1.202609        -0.056390
 H        -0.477532         0.257436        -0.986369
 H         0.487814        -1.184503        -1.529682
 H         1.562769        -1.562279         1.311888
 H         2.499009        -2.099883        -0.216701
 H         4.238048        -1.134210         1.556114
 H         4.343377         1.722564        -0.390770
 H         1.625992         1.704790        -1.180020
 H         2.387198         0.268689        -2.034006
 H         3.608636         1.297301         1.862034
