19
Iteration:  1122
 C         0.227311        -0.471076        -0.695603
 C         1.531520        -0.018352        -0.124045
 C         2.337548        -1.337552         0.473361
 C         3.553596        -0.664154         0.901033
 O         4.319208        -0.281204        -0.227637
 C         3.573799         0.972081        -0.295731
 C         2.334968         0.813274        -1.039165
 C         3.044383         0.814761         1.146673
 O         1.589491         0.847836         1.191908
 H        -0.355193        -0.981560         0.015998
 H        -0.308515         0.414656        -1.100590
 H         0.345156        -1.157203        -1.536349
 H         1.535104        -1.748093         1.145026
 H         2.455018        -2.127774        -0.254636
 H         4.052996        -1.219312         1.828521
 H         4.349970         1.601136        -0.706592
 H         1.723472         1.750890        -1.019367
 H         2.396354         0.356603        -2.013192
 H         3.343901         1.515314         1.980372
