19
Iteration:  4573
 C         0.143977        -0.228806        -0.727221
 C         1.466777        -0.037010        -0.056158
 C         2.182367        -1.347850         0.415953
 C         3.510367        -0.802658         0.979839
 O         4.488255        -0.276359        -0.128093
 C         3.590161         0.965550        -0.295378
 C         2.339545         0.821232        -1.110670
 C         3.069202         0.746847         1.143099
 O         1.608682         0.797867         1.145693
 H        -0.441526        -0.967900        -0.142498
 H        -0.483972         0.601824        -1.050055
 H         0.446528        -0.609948        -1.738082
 H         1.707765        -1.910935         1.240291
 H         2.403328        -2.149402        -0.305616
 H         4.192210        -1.263635         1.649357
 H         4.209842         1.855132        -0.503628
 H         1.949378         1.788597        -1.375847
 H         2.634275         0.318023        -2.073057
 H         3.515990         1.360006         1.995068
