19
Iteration:  3362
 C         0.010468        -0.197667        -0.510533
 C         1.532995        -0.107673        -0.161446
 C         2.270155        -1.382699         0.226939
 C         3.535207        -0.702511         1.012721
 O         4.544938        -0.153520         0.036550
 C         3.608411         0.973704        -0.225476
 C         2.363285         0.632452        -1.199636
 C         3.014867         0.718087         1.114670
 O         1.585334         0.819622         1.005160
 H        -0.330773        -0.257066         0.477614
 H        -0.314319         0.810122        -0.841325
 H        -0.431469        -1.074871        -0.985189
 H         1.532942        -1.912234         0.864579
 H         2.601329        -2.042244        -0.565645
 H         4.038200        -1.371574         1.698898
 H         4.073069         1.958975        -0.470424
 H         1.911309         1.490066        -1.649301
 H         2.761472        -0.124826        -1.999765
 H         3.369775         1.438154         1.882742
