19
Iteration:  2416
 C         0.048337        -0.381909        -0.630991
 C         1.454366         0.028491        -0.063640
 C         2.233989        -1.324802         0.447121
 C         3.492221        -0.709299         0.960240
 O         4.426748        -0.249448        -0.212784
 C         3.659807         1.021329        -0.272224
 C         2.461976         0.668967        -1.109959
 C         3.072272         0.794575         1.112069
 O         1.593954         0.828487         1.123736
 H        -0.620601        -0.851070         0.149680
 H        -0.557053         0.458157        -0.880402
 H         0.178323        -1.011946        -1.503137
 H         1.852777        -1.942916         1.259910
 H         2.507917        -1.964177        -0.371504
 H         4.133131        -1.151666         1.768075
 H         4.230845         1.847800        -0.563639
 H         1.960819         1.529816        -1.473618
 H         2.762657         0.018293        -2.012045
 H         3.458343         1.414010         1.905478
