19
Iteration:   655
 C         0.087077        -0.319712        -0.526230
 C         1.517923        -0.076950        -0.122236
 C         2.267634        -1.375374         0.442379
 C         3.518477        -0.672803         0.891504
 O         4.441162        -0.172283        -0.155576
 C         3.624847         0.991330        -0.259339
 C         2.399281         0.675692        -1.136300
 C         3.027943         0.769232         1.168498
 O         1.588031         0.809562         1.033590
 H        -0.373229        -0.887151         0.245302
 H        -0.486222         0.607320        -0.640253
 H        -0.023623        -0.934916        -1.420400
 H         1.707786        -1.871399         1.258773
 H         2.614488        -2.116150        -0.356428
 H         4.125855        -1.211485         1.570044
 H         4.150529         1.962464        -0.594731
 H         1.783033         1.576376        -1.452122
 H         2.645879         0.173484        -2.046119
 H         3.387019         1.385640         2.050954
