19
Iteration:   457
 C        -0.068389        -0.145473        -0.379630
 C         1.451124        -0.150441        -0.219737
 C         2.342055        -1.418066         0.292721
 C         3.609521        -0.635758         0.939075
 O         4.528417        -0.104960        -0.100113
 C         3.608594         0.941767        -0.199450
 C         2.455293         0.619702        -1.171544
 C         2.902202         0.748321         1.233142
 O         1.600784         0.720510         0.936000
 H        -0.450153        -0.510225         0.582469
 H        -0.461898         0.825166        -0.455158
 H        -0.516515        -0.622784        -1.217465
 H         1.915808        -2.134349         1.027493
 H         2.641266        -1.953749        -0.518390
 H         4.158302        -1.159440         1.719317
 H         4.227217         1.903654        -0.471788
 H         1.933141         1.545869        -1.672763
 H         2.905192         0.052920        -2.068458
 H         3.293093         1.455738         1.925899
