19
Iteration:   267charge 0 multiplicity 1
 C         0.177251        -0.444410        -0.643786
 C         1.495598        -0.047870        -0.094514
 C         2.269379        -1.326963         0.404659
 C         3.542832        -0.677148         0.952767
 O         4.317718        -0.283182        -0.253558
 C         3.614976         0.966474        -0.224552
 C         2.350999         0.815782        -1.024770
 C         3.071416         0.818114         1.190409
 O         1.623698         0.855525         1.057376
 H        -0.281732        -0.951004         0.208582
 H        -0.394469         0.460940        -0.989329
 H         0.473670        -1.098373        -1.508845
 H         1.569419        -1.756478         1.179981
 H         2.464091        -2.174038        -0.422142
 H         4.158062        -1.329596         1.762668
 H         4.308446         1.714789        -0.544263
 H         1.777151         1.795544        -1.090842
 H         2.536796         0.496265        -2.154666
 H         3.368828         1.215577         2.136941
