19
Iteration:  1728
 C         0.096232        -0.435447        -0.660246
 C         1.542518        -0.095652        -0.057092
 C         2.274414        -1.270729         0.407168
 C         3.544794        -0.673751         0.999334
 O         4.350227        -0.258539        -0.217061
 C         3.614241         1.025807        -0.290458
 C         2.380483         0.783990        -1.099694
 C         3.036063         0.860052         1.177978
 O         1.649591         0.748899         1.082536
 H        -0.557952        -0.980276         0.026936
 H        -0.441108         0.531043        -0.898980
 H         0.217936        -1.126089        -1.546098
 H         1.590607        -1.535191         1.211686
 H         2.591264        -2.134980        -0.207365
 H         4.151071        -1.303811         1.704007
 H         4.304588         1.786376        -0.532342
 H         1.746456         1.629361        -1.267600
 H         2.556294         0.286396        -2.026944
 H         3.295719         1.446232         2.127778
