19
Iteration:  2944
 C        -0.104396        -0.227493        -0.387231
 C         1.444621        -0.020144        -0.171396
 C         2.232371        -1.265282         0.192428
 C         3.540524        -0.695094         0.929673
 O         4.575611        -0.195871         0.087028
 C         3.578699         0.978885        -0.248282
 C         2.539455         0.479698        -1.299787
 C         3.036912         0.745567         1.156626
 O         1.605440         0.845121         1.014826
 H        -0.405096        -1.004148         0.329052
 H        -0.598254         0.738979        -0.214923
 H        -0.226323        -0.461465        -1.405101
 H         1.688247        -1.982260         0.818575
 H         2.546386        -1.729429        -0.806402
 H         3.788440        -1.360856         1.795662
 H         4.091698         2.036018        -0.317297
 H         2.080117         1.197986        -1.996896
 H         2.850553        -0.328940        -1.821980
 H         3.390530         1.332021         2.092158
