19
Iteration:  4993charge 0 multiplicity 1
 C         0.117563        -0.349198        -0.677421
 C         1.534116        -0.033808        -0.196660
 C         2.251858        -1.241974         0.559036
 C         3.456875        -0.669317         1.096004
 O         4.330957        -0.363825        -0.145464
 C         3.603373         0.867769        -0.310862
 C         2.477422         0.684064        -1.137031
 C         3.002896         0.807626         1.120763
 O         1.669170         0.930730         1.028009
 H        -0.354036        -1.135000        -0.039298
 H        -0.416607         0.564598        -0.677870
 H         0.244365        -0.551174        -1.737870
 H         1.514921        -1.595825         1.323474
 H         2.510046        -2.153853        -0.033533
 H         3.999704        -1.201001         1.916761
 H         4.321495         1.582251        -0.602975
 H         1.975879         1.741975        -1.476355
 H         2.753087         0.231813        -2.079315
 H         3.433046         1.438711         2.003081
