19
Iteration:   193
 C         0.034492        -0.169278        -0.340180
 C         1.541199        -0.152150        -0.279428
 C         2.331820        -1.451675         0.267468
 C         3.535120        -0.700683         0.907618
 O         4.477752        -0.113450        -0.016678
 C         3.589008         0.967915        -0.240996
 C         2.437526         0.644107        -1.203577
 C         2.892218         0.787547         1.174777
 O         1.585649         0.761263         0.992457
 H        -0.331716        -0.463668         0.616621
 H        -0.212531         0.901924        -0.275670
 H        -0.227204        -0.739412        -1.232447
 H         1.751517        -1.987851         1.019331
 H         2.598713        -2.143481        -0.446192
 H         4.117612        -1.045770         1.838179
 H         4.141751         1.964193        -0.722013
 H         1.854431         1.512073        -1.588331
 H         2.913311        -0.026629        -2.063589
 H         3.357346         1.327682         1.973915
