19
Iteration:  2092charge 0 multiplicity 1
 C        -0.028939        -0.178529        -0.426174
 C         1.529642        -0.199612        -0.248300
 C         2.318024        -1.399961         0.280542
 C         3.486598        -0.671049         0.986724
 O         4.482648        -0.106691        -0.017385
 C         3.630179         1.056018        -0.312070
 C         2.407161         0.604465        -1.213276
 C         3.019343         0.785578         1.159573
 O         1.605651         0.708455         1.037223
 H        -0.316785        -0.492526         0.626482
 H        -0.195522         0.909388        -0.377777
 H        -0.428946        -0.892425        -1.166644
 H         1.770636        -2.061741         1.091822
 H         2.756672        -2.015591        -0.438185
 H         3.929568        -1.260514         1.815139
 H         4.155512         1.936797        -0.682676
 H         1.762368         1.494245        -1.443573
 H         2.735948         0.061250        -2.204981
 H         3.391127         1.503558         1.899864
