19
Iteration:  4181charge 0 multiplicity 1
 C         0.181768        -0.353239        -0.636584
 C         1.602890        -0.023948        -0.113761
 C         2.183237        -1.296243         0.443284
 C         3.497590        -0.738987         0.964426
 O         4.234392        -0.345476        -0.270398
 C         3.691245         1.046751        -0.171206
 C         2.440449         0.833906        -1.098987
 C         3.049094         0.776930         1.243638
 O         1.602358         0.799128         1.023307
 H        -0.107351        -1.367347        -0.132209
 H        -0.668437         0.259628        -0.415728
 H         0.289975        -0.512128        -1.764210
 H         1.683642        -1.749379         1.269874
 H         2.305833        -2.055645        -0.329909
 H         4.041624        -1.291600         1.732513
 H         4.550017         1.642545        -0.308174
 H         1.849033         1.759262        -1.417759
 H         2.835725         0.489195        -2.150250
 H         3.386124         1.400668         2.060771
