19
Iteration:  4095charge 0 multiplicity 1
 C        -0.050414        -0.077553        -0.385590
 C         1.494078        -0.127250        -0.252301
 C         2.273460        -1.463986         0.229977
 C         3.539655        -0.725645         0.935595
 O         4.478567        -0.111046         0.001823
 C         3.614289         1.050934        -0.132206
 C         2.469179         0.653473        -1.237093
 C         2.986332         0.719852         1.227841
 O         1.639747         0.704518         0.892836
 H        -0.495690         0.048079         0.673500
 H        -0.285500         0.817069        -0.946408
 H        -0.551755        -0.958081        -0.933442
 H         1.603599        -1.937239         0.970460
 H         2.743934        -2.203852        -0.425765
 H         3.932794        -1.368821         1.702923
 H         4.179476         1.912246        -0.378293
 H         2.084610         1.456632        -1.757586
 H         2.946303        -0.214714        -1.724168
 H         3.348536         1.370556         2.028161
