19
Iteration:  4060charge 0 multiplicity 1
 C         0.133368        -0.308357        -0.596627
 C         1.458722         0.003159        -0.119331
 C         2.258221        -1.307520         0.261182
 C         3.509383        -0.725223         0.951392
 O         4.486171        -0.273625        -0.058823
 C         3.663265         0.889541        -0.255291
 C         2.351458         0.779702        -1.124677
 C         3.048498         0.767867         1.214017
 O         1.570808         0.815072         1.096666
 H        -0.699375        -0.583571         0.172711
 H        -0.247077         0.609151        -1.147438
 H         0.220425        -1.139130        -1.305445
 H         1.620744        -1.855283         0.957509
 H         2.520610        -1.998728        -0.557978
 H         4.032173        -1.324188         1.713941
 H         4.308909         1.724498        -0.559798
 H         1.992596         1.715161        -1.538619
 H         2.285017         0.248328        -2.098555
 H         3.297951         1.525116         1.962287
