19
Iteration:  2214charge 0 multiplicity 1
 C         0.024077        -0.156868        -0.341884
 C         1.494176        -0.106471        -0.193039
 C         2.265577        -1.387473         0.202834
 C         3.530478        -0.592458         0.945568
 O         4.560336        -0.088040         0.055689
 C         3.569596         0.990164        -0.303093
 C         2.425422         0.496153        -1.188328
 C         2.939781         0.743831         1.101761
 O         1.616862         0.721649         1.002211
 H        -0.219668        -0.658775         0.571668
 H        -0.295624         0.916754        -0.467591
 H        -0.316374        -0.816758        -1.204539
 H         1.781136        -2.076327         0.977545
 H         2.445654        -2.016965        -0.711802
 H         3.931140        -1.214655         1.747525
 H         4.117675         1.932170        -0.601244
 H         2.065596         1.517230        -1.654833
 H         2.774235        -0.129936        -2.017470
 H         3.211031         1.343769         1.914194
