19
Iteration:   402charge 0 multiplicity 1
 C         0.130197        -0.521652        -0.725034
 C         1.475223        -0.060324        -0.097698
 C         2.287293        -1.254894         0.414825
 C         3.581725        -0.677048         0.914654
 O         4.283298        -0.323751        -0.261459
 C         3.630968         1.014909        -0.234176
 C         2.371751         0.863241        -0.999193
 C         3.152876         0.788089         1.253511
 O         1.580961         0.852095         1.105020
 H        -0.550569        -1.055043        -0.041667
 H        -0.400293         0.356158        -1.006622
 H         0.281800        -1.165034        -1.564045
 H         1.677076        -1.598528         1.264975
 H         2.376566        -2.007944        -0.270458
 H         4.087127        -1.332776         1.636665
 H         4.405572         1.832078        -0.530886
 H         1.711388         1.790260        -1.081468
 H         2.579795         0.365507        -2.029009
 H         3.754573         1.311302         1.966839
