19
Iteration:   667
 C         0.131051        -0.379307        -0.620060
 C         1.481941        -0.063525        -0.111312
 C         2.244386        -1.299177         0.440972
 C         3.603719        -0.671366         0.941436
 O         4.385635        -0.220169        -0.194879
 C         3.581353         0.977847        -0.290812
 C         2.327757         0.697294        -1.155825
 C         3.069179         0.859587         1.180790
 O         1.614207         0.757942         1.150815
 H        -0.520586        -0.930636        -0.026152
 H        -0.348331         0.516173        -1.004444
 H         0.450906        -0.892992        -1.516951
 H         1.693459        -1.662190         1.290042
 H         2.323534        -2.257111        -0.302909
 H         4.069345        -1.207893         1.699020
 H         4.326044         1.818611        -0.614938
 H         2.016531         1.808434        -1.247197
 H         2.487265         0.139217        -2.073780
 H         3.544486         1.383725         2.046345
