19
Iteration:  1405
 C         0.270315        -0.458883        -0.690476
 C         1.553432        -0.099002        -0.115162
 C         2.255128        -1.340426         0.537480
 C         3.511478        -0.656724         1.010968
 O         4.287166        -0.318251        -0.270741
 C         3.577097         1.037887        -0.276940
 C         2.346488         0.871626        -1.104573
 C         3.040760         0.880612         1.136650
 O         1.644279         0.761422         1.144733
 H        -0.448204        -1.024615        -0.043930
 H        -0.246874         0.531589        -0.912115
 H        -0.002056        -1.077581        -1.575005
 H         1.493576        -1.718575         1.356700
 H         2.586542        -2.162593        -0.141410
 H         4.247692        -1.179972         1.553454
 H         4.313025         1.856722        -0.728693
 H         1.695048         1.770208        -1.198691
 H         2.583473         0.607939        -2.136219
 H         3.532039         1.258569         2.032032
