19
Iteration:  4289
 C         0.149314        -0.286639        -0.600020
 C         1.553995        -0.050049        -0.236250
 C         2.235567        -1.371485         0.396803
 C         3.479582        -0.772873         0.892915
 O         4.391044        -0.307803        -0.124346
 C         3.652204         1.024754        -0.207758
 C         2.400602         0.858428        -1.092769
 C         3.021710         0.753783         1.178253
 O         1.603876         0.803955         1.067016
 H        -0.393004        -0.213503         0.365348
 H        -0.253482         0.301611        -1.358483
 H        -0.077667        -1.288859        -0.938227
 H         1.629625        -1.761768         1.246162
 H         2.400259        -2.212286        -0.296967
 H         3.963384        -1.395333         1.629355
 H         4.414078         1.798808        -0.348123
 H         1.975055         1.899180        -1.066126
 H         2.513781         0.530388        -2.192917
 H         3.310164         1.305874         2.063240
