19
Iteration:  3497
 C         0.041800        -0.207997        -0.471172
 C         1.521263        -0.108386        -0.132276
 C         2.296301        -1.320478         0.320755
 C         3.498002        -0.665898         0.980992
 O         4.481786        -0.226674        -0.068086
 C         3.696620         0.963143        -0.240410
 C         2.448113         0.658422        -1.107556
 C         2.963501         0.769974         1.116770
 O         1.561862         0.776463         0.943386
 H        -0.632351        -0.870035         0.126301
 H        -0.510056         0.691840        -0.513239
 H        -0.161413        -0.654549        -1.409053
 H         1.671645        -1.845457         1.061497
 H         2.510077        -2.156048        -0.400677
 H         3.969772        -1.308531         1.776259
 H         4.196517         1.883945        -0.477542
 H         1.962476         1.564938        -1.479866
 H         2.690734         0.125747        -1.989357
 H         3.337511         1.480877         1.858612
