19
Iteration:  3882
 C         0.133687        -0.376225        -0.788332
 C         1.468990         0.005227        -0.080949
 C         2.237699        -1.354008         0.473540
 C         3.468918        -0.693291         1.013392
 O         4.331403        -0.339193        -0.143606
 C         3.598391         0.970552        -0.276991
 C         2.340411         0.825098        -1.115824
 C         3.084219         0.794322         1.150201
 O         1.730359         0.822468         1.151818
 H        -0.781956        -0.608405        -0.235641
 H         0.089730         0.594560        -1.462241
 H         0.653242        -1.200945        -1.411512
 H         1.554253        -1.743311         1.209111
 H         2.465649        -2.020854        -0.346549
 H         4.053407        -1.335522         1.713786
 H         4.247125         1.819323        -0.651922
 H         1.870196         1.833523        -1.307450
 H         2.646978         0.329522        -1.971238
 H         3.537019         1.312869         2.003894
