19
Iteration:  4242
 C        -0.082211        -0.096995        -0.502362
 C         1.447709        -0.063856        -0.143760
 C         2.348079        -1.414773         0.132266
 C         3.490592        -0.708589         0.922541
 O         4.549245        -0.107569         0.060274
 C         3.644870         0.911389        -0.282161
 C         2.421406         0.571091        -1.157847
 C         3.042099         0.719547         1.164431
 O         1.600327         0.788077         1.125995
 H        -0.692580        -0.493434         0.332228
 H        -0.393773         0.934304        -0.930901
 H        -0.264839        -0.735963        -1.364259
 H         1.699212        -2.099982         0.781957
 H         2.459740        -1.963961        -0.871081
 H         3.946684        -1.309160         1.766075
 H         4.205774         1.935274        -0.533353
 H         1.880591         1.378309        -1.654920
 H         2.827660        -0.084313        -1.889445
 H         3.508913         1.313949         1.960413
