19
Iteration:  2967
 C        -0.016203        -0.175964        -0.409843
 C         1.522191        -0.066263        -0.233382
 C         2.236549        -1.400658         0.311984
 C         3.472063        -0.702433         0.925123
 O         4.542177        -0.169501         0.050870
 C         3.684032         0.926732        -0.289104
 C         2.490501         0.645676        -1.178540
 C         3.005993         0.809691         1.099729
 O         1.538914         0.749227         0.971141
 H        -0.273905        -0.840612         0.470722
 H        -0.405966         0.796174        -0.231591
 H        -0.329997        -0.507972        -1.368183
 H         1.656646        -1.802194         1.160715
 H         2.491410        -2.176086        -0.455470
 H         3.866719        -1.204956         1.808432
 H         4.374081         1.722187        -0.778097
 H         2.004149         1.601456        -1.497929
 H         2.685880         0.053523        -2.046186
 H         3.211343         1.415639         2.035100
