19
Iteration:  4969
 C         0.085284        -0.260633        -0.555901
 C         1.540476        -0.085094        -0.152716
 C         2.229730        -1.363687         0.468030
 C         3.481098        -0.650151         1.000383
 O         4.363640        -0.380983        -0.069279
 C         3.713427         0.998160        -0.272277
 C         2.501738         0.650222        -1.137591
 C         3.017146         0.878992         1.135950
 O         1.583854         0.863074         0.920994
 H        -0.343538        -0.461446         0.463663
 H        -0.226749         0.699865        -0.945328
 H        -0.069648        -0.956000        -1.381265
 H         1.461413        -1.870047         1.112266
 H         2.316864        -2.032622        -0.389991
 H         3.959895        -1.043033         1.969560
 H         4.538496         1.611446        -0.556874
 H         1.788577         1.484031        -1.589144
 H         2.821806         0.121605        -2.055384
 H         3.083162         1.491813         2.076077
