19
Iteration:  4649charge 0 multiplicity 1
 C        -0.107504        -0.178046        -0.485073
 C         1.427192        -0.073751        -0.200649
 C         2.240263        -1.319226         0.167246
 C         3.526505        -0.730299         0.926103
 O         4.576183        -0.225238         0.071258
 C         3.713178         0.944688        -0.253089
 C         2.467662         0.635288        -1.117577
 C         3.012469         0.795231         1.184644
 O         1.582839         0.755506         1.009450
 H        -0.552250        -1.199035        -0.400649
 H        -0.595171         0.295142         0.367131
 H        -0.486579         0.293622        -1.426477
 H         1.652245        -2.036917         0.764119
 H         2.635616        -1.877923        -0.711907
 H         3.990026        -1.163052         1.801431
 H         4.387984         1.728144        -0.625544
 H         2.113583         1.705560        -1.443148
 H         2.882891         0.145892        -2.089316
 H         3.389617         1.508640         1.982149
