19
Iteration:  2381
 C        -0.020371        -0.153308        -0.299769
 C         1.513044        -0.105248        -0.187008
 C         2.358652        -1.405525         0.294244
 C         3.472478        -0.697443         0.951200
 O         4.553332        -0.121145         0.064204
 C         3.621513         0.968314        -0.292416
 C         2.414291         0.622781        -1.211521
 C         2.952373         0.731126         1.067681
 O         1.584641         0.743117         0.906938
 H        -0.264586        -0.567419         0.727298
 H        -0.249775         0.884698        -0.529163
 H        -0.370970        -0.810682        -1.078406
 H         1.784679        -2.045762         0.933475
 H         2.672378        -1.968739        -0.677029
 H         3.840974        -1.217786         1.817868
 H         4.124724         1.915924        -0.557150
 H         1.815862         1.561163        -1.500301
 H         2.662680         0.055139        -2.152885
 H         3.352271         1.486657         1.772050
