19
Iteration:  3893
 C         0.195584        -0.348557        -0.761633
 C         1.490088         0.037537        -0.109726
 C         2.234705        -1.259343         0.432809
 C         3.545346        -0.739569         0.936397
 O         4.276966        -0.292115        -0.176154
 C         3.633539         0.906844        -0.220436
 C         2.356825         0.779746        -1.098318
 C         3.096612         0.764900         1.237795
 O         1.659779         0.824581         1.137441
 H        -0.693566        -0.627188        -0.169076
 H        -0.294836         0.294287        -1.675885
 H         0.258228        -1.365509        -1.335936
 H         1.717083        -1.646839         1.291786
 H         2.333280        -2.085857        -0.269185
 H         4.018706        -1.082615         1.862326
 H         4.394504         1.704802        -0.502107
 H         1.914818         1.731551        -1.516464
 H         2.579871         0.207777        -1.930653
 H         3.465875         1.428429         2.031568
