19
Iteration:  3498
 C         0.033776        -0.204327        -0.469208
 C         1.512143        -0.107458        -0.138651
 C         2.297865        -1.315422         0.314277
 C         3.501380        -0.663489         0.988386
 O         4.478394        -0.221611        -0.062993
 C         3.701461         0.961272        -0.247859
 C         2.447797         0.650731        -1.105738
 C         2.963799         0.771814         1.117259
 O         1.568610         0.768253         0.940946
 H        -0.637264        -0.857203         0.147282
 H        -0.504661         0.702478        -0.510626
 H        -0.192161        -0.667464        -1.415835
 H         1.649129        -1.865616         1.037748
 H         2.556620        -2.152574        -0.398602
 H         3.972216        -1.291750         1.778590
 H         4.216817         1.879040        -0.492498
 H         1.955612         1.572048        -1.482136
 H         2.705684         0.133561        -1.945790
 H         3.347607         1.458444         1.895597
