19
Iteration:  2208
 C         0.025711        -0.166278        -0.379657
 C         1.496575        -0.124046        -0.206854
 C         2.256592        -1.413658         0.291328
 C         3.515920        -0.623636         0.934311
 O         4.542060        -0.120373         0.028511
 C         3.582766         1.033654        -0.275105
 C         2.417988         0.558597        -1.213081
 C         2.990941         0.744809         1.093993
 O         1.601373         0.701903         0.993604
 H        -0.410091        -0.587486         0.576912
 H        -0.334676         0.849982        -0.382494
 H        -0.277868        -0.777565        -1.191545
 H         1.748869        -2.089569         0.910117
 H         2.652439        -1.816837        -0.686993
 H         4.019671        -0.971719         1.860318
 H         4.131278         1.925729        -0.581983
 H         1.961916         1.429058        -1.558551
 H         2.796945        -0.093940        -1.993684
 H         3.296756         1.486651         1.917760
