19
Iteration:  4930charge 0 multiplicity 1
 C        -0.048414        -0.160501        -0.545069
 C         1.447231        -0.041656        -0.169769
 C         2.232961        -1.284400         0.313654
 C         3.586449        -0.732290         1.014361
 O         4.612046        -0.261230         0.139651
 C         3.691943         0.949444        -0.327511
 C         2.396612         0.554474        -1.215127
 C         2.931907         0.774266         1.106847
 O         1.614759         0.845737         0.981289
 H        -0.847274         0.197455         0.152126
 H        -0.326564         0.551821        -1.330146
 H        -0.423913        -1.193226        -0.613665
 H         1.706928        -1.872175         1.057576
 H         2.464654        -1.949145        -0.545436
 H         3.990429        -1.231167         1.863010
 H         4.190393         1.788523        -0.926141
 H         2.049466         1.343393        -1.844194
 H         2.733072        -0.263429        -1.777882
 H         3.294294         1.340424         2.070835
