19
Iteration:  3290charge 0 multiplicity 1
 C         0.088653        -0.443764        -0.708076
 C         1.536973        -0.011289        -0.047218
 C         2.142670        -1.288716         0.441692
 C         3.540013        -0.733333         0.909694
 O         4.371188        -0.271384        -0.175883
 C         3.678011         1.036220        -0.208737
 C         2.401771         0.702095        -1.056025
 C         3.088564         0.823524         1.175989
 O         1.635875         0.861476         1.042174
 H        -0.446842        -1.368829        -0.320013
 H        -0.554680         0.469744        -0.637123
 H         0.252763        -0.743757        -1.718622
 H         1.619946        -1.717312         1.304613
 H         2.255233        -1.970695        -0.456064
 H         3.986854        -1.339580         1.731374
 H         4.265552         1.913917        -0.412797
 H         1.929522         1.653676        -1.439479
 H         2.693767         0.049491        -1.839416
 H         3.481795         1.374505         2.004244
