19
Iteration:   142charge 0 multiplicity 1
 C         0.079972        -0.356036        -0.558214
 C         1.516397        -0.103027        -0.117558
 C         2.288193        -1.297330         0.314376
 C         3.506703        -0.713948         0.956309
 O         4.437527        -0.204330        -0.084424
 C         3.601702         0.927602        -0.285529
 C         2.373018         0.681569        -1.118310
 C         3.040758         0.822335         1.139179
 O         1.608549         0.866226         1.063212
 H        -0.392563        -0.833182         0.361459
 H        -0.438770         0.606951        -0.738080
 H         0.131139        -1.009929        -1.450095
 H         1.731098        -2.003306         1.054003
 H         2.535167        -1.973222        -0.573157
 H         4.058383        -1.242449         1.653235
 H         4.102848         1.904661        -0.560368
 H         1.848310         1.637733        -1.161536
 H         2.543707         0.225716        -2.045029
 H         3.578412         1.340930         2.000522
