19
Iteration:  1660
 C        -0.006199        -0.273667        -0.458469
 C         1.458828        -0.122060        -0.187883
 C         2.388188        -1.324412         0.342815
 C         3.555189        -0.611454         1.020124
 O         4.471950        -0.178162        -0.161017
 C         3.656812         0.991177        -0.267573
 C         2.430748         0.650111        -1.129583
 C         2.999343         0.763761         1.104923
 O         1.517694         0.718455         1.032075
 H        -0.438281        -0.687869         0.495079
 H        -0.369242         0.781506        -0.587025
 H        -0.371879        -0.857743        -1.343937
 H         1.831931        -1.885425         1.035611
 H         2.820695        -2.038435        -0.556343
 H         4.057358        -1.091715         1.919953
 H         4.031596         1.935044        -0.357481
 H         2.056488         1.670233        -1.387486
 H         2.730726         0.088197        -2.039170
 H         3.336535         1.332291         1.950452
