19
Iteration:  4028charge 0 multiplicity 1
 C         0.164583        -0.411021        -0.721946
 C         1.536825        -0.095288        -0.166052
 C         2.182502        -1.368344         0.442660
 C         3.462193        -0.670958         1.000124
 O         4.263766        -0.342294        -0.260088
 C         3.739868         0.970907        -0.236800
 C         2.411244         0.860263        -1.070123
 C         3.096636         0.840368         1.243415
 O         1.608717         0.857190         1.115004
 H        -0.397417        -1.282018        -0.172197
 H        -0.343454         0.602892        -0.738224
 H         0.295283        -0.726590        -1.770711
 H         1.641037        -1.727335         1.340063
 H         2.400788        -2.157415        -0.306474
 H         4.215152        -1.168938         1.614793
 H         4.419801         1.818057        -0.309841
 H         1.968959         1.802518        -1.107259
 H         2.732361         0.361186        -2.061860
 H         3.291148         1.501615         2.100131
