19
Iteration:  1360
 C        -0.045936        -0.283622        -0.425004
 C         1.481450        -0.069987        -0.142947
 C         2.297597        -1.344545         0.257283
 C         3.545368        -0.696784         0.938895
 O         4.549232        -0.121495        -0.047316
 C         3.616106         1.038222        -0.307989
 C         2.418444         0.589232        -1.185739
 C         3.030406         0.781181         1.172407
 O         1.613226         0.733316         1.052394
 H        -0.473541        -0.945075         0.358979
 H        -0.612584         0.673526        -0.643962
 H        -0.111481        -0.980891        -1.340964
 H         1.685725        -1.940131         1.076780
 H         2.419722        -1.906971        -0.605106
 H         3.707812        -1.122178         1.857874
 H         4.018828         2.141304        -0.469049
 H         1.913034         1.417580        -1.743239
 H         2.770650        -0.011151        -2.011993
 H         3.286554         1.496763         1.922521
