19
Iteration:   374
 C         0.163473        -0.377555        -0.524247
 C         1.550915        -0.064682        -0.133347
 C         2.279682        -1.357606         0.436432
 C         3.520754        -0.704646         0.932943
 O         4.322006        -0.247552        -0.233523
 C         3.612919         1.056514        -0.253555
 C         2.450442         0.858350        -1.161596
 C         3.009469         0.782592         1.236827
 O         1.587981         0.737090         1.031595
 H        -0.391369        -1.003086         0.186258
 H        -0.419484         0.574849        -0.761714
 H         0.314681        -1.056788        -1.419632
 H         1.594259        -1.630765         1.244531
 H         2.384991        -2.285901        -0.308161
 H         4.025496        -1.337918         1.660051
 H         4.285122         1.843086        -0.365795
 H         1.790035         1.683247        -1.114349
 H         2.531883         0.489564        -2.113861
 H         3.586560         1.351349         1.980803
