19
Iteration:  3747charge 0 multiplicity 1
 C         0.210265        -0.356811        -0.687285
 C         1.511460         0.046019        -0.101586
 C         2.257822        -1.374038         0.553507
 C         3.495327        -0.714939         0.976946
 O         4.316705        -0.322316        -0.349598
 C         3.672647         0.963232        -0.201934
 C         2.453232         0.853239        -1.075473
 C         2.988432         0.705317         1.230705
 O         1.549200         0.887873         1.062363
 H        -0.608840        -0.831795        -0.010617
 H        -0.216731         0.415673        -1.338356
 H         0.429659        -1.169302        -1.444528
 H         1.604930        -1.674309         1.380543
 H         2.444435        -2.197004        -0.167435
 H         4.268505        -1.187655         1.641335
 H         4.379555         1.763726        -0.315442
 H         1.998660         1.723624        -1.435621
 H         2.710825         0.048333        -1.893680
 H         3.372669         1.375085         2.002479
