19
Iteration:  1568
 C         0.228638        -0.447181        -0.646678
 C         1.555524        -0.111876        -0.107740
 C         2.220935        -1.365757         0.504916
 C         3.540287        -0.614462         0.998595
 O         4.299360        -0.307310        -0.262982
 C         3.568501         1.052512        -0.226636
 C         2.296252         0.859001        -1.112941
 C         3.089487         0.823217         1.181663
 O         1.645524         0.780408         1.048070
 H        -0.335604        -1.059180         0.080966
 H        -0.217053         0.474312        -1.033544
 H         0.486919        -1.027645        -1.536718
 H         1.580597        -1.991654         1.318940
 H         2.520770        -2.137541        -0.161422
 H         4.172034        -1.147623         1.664156
 H         4.281190         1.950872        -0.662396
 H         1.635636         1.904631        -0.996751
 H         2.466135         0.426460        -2.179846
 H         3.606584         1.466305         2.013015
