19
Iteration:  2122charge 0 multiplicity 1
 C         0.119223        -0.436384        -0.622326
 C         1.456138        -0.052533        -0.095472
 C         2.297752        -1.230374         0.419122
 C         3.558126        -0.684206         0.995409
 O         4.420482        -0.304987        -0.277396
 C         3.653254         0.993388        -0.247422
 C         2.339079         0.778790        -1.076177
 C         3.071519         0.768078         1.229646
 O         1.572338         0.822520         1.058625
 H        -0.547257        -0.945422         0.114663
 H        -0.314976         0.492306        -0.981320
 H         0.121389        -1.108072        -1.451300
 H         1.747073        -1.760829         1.230863
 H         2.529745        -2.023735        -0.292347
 H         4.083697        -1.239963         1.798726
 H         4.158765         1.892211        -0.447732
 H         1.793738         1.667919        -1.367446
 H         2.565260         0.236764        -2.072624
 H         3.352886         1.641849         1.897939
