19
Iteration:  3180charge 0 multiplicity 1
 C         0.152275        -0.392747        -0.670086
 C         1.532595        -0.117062        -0.092768
 C         2.256043        -1.319629         0.473955
 C         3.503824        -0.702109         0.941155
 O         4.336053        -0.300783        -0.154908
 C         3.687732         0.946986        -0.264690
 C         2.413350         0.844505        -1.078827
 C         3.032427         0.787858         1.107878
 O         1.606977         0.880172         1.090944
 H        -0.668651        -0.579626         0.038777
 H        -0.241389         0.441194        -1.372788
 H         0.232931        -1.205836        -1.400544
 H         1.652515        -1.758959         1.285533
 H         2.379935        -2.022298        -0.386226
 H         3.923896        -1.349738         1.764012
 H         4.287881         1.782095        -0.506013
 H         1.798640         1.814574        -1.105077
 H         2.559691         0.471948        -2.171541
 H         3.364324         1.337831         2.044306
