19
Iteration:  3907
 C         0.127759        -0.358285        -0.691338
 C         1.522540        -0.010175        -0.136320
 C         2.205151        -1.273554         0.432607
 C         3.536241        -0.695812         0.956826
 O         4.392434        -0.349823        -0.227765
 C         3.664811         1.013669        -0.218198
 C         2.464481         0.740007        -1.082918
 C         3.022830         0.763470         1.225266
 O         1.540901         0.843736         1.088079
 H        -0.451753        -0.384016         0.279945
 H        -0.213583         0.499034        -1.391205
 H         0.226016        -1.350516        -1.110533
 H         1.482026        -1.545484         1.241650
 H         2.394564        -2.011021        -0.387796
 H         4.092615        -1.497810         1.468931
 H         4.262783         1.935611        -0.406591
 H         1.908923         1.681213        -1.267692
 H         2.772641         0.125839        -1.969428
 H         3.379729         1.267934         2.109237
