19
Iteration:  3775charge 0 multiplicity 1
 C         0.039320        -0.246511        -0.613489
 C         1.542223        -0.087528        -0.220148
 C         2.285695        -1.341087         0.340918
 C         3.436348        -0.648039         1.051141
 O         4.420769        -0.266000        -0.080691
 C         3.629255         0.955732        -0.299655
 C         2.403177         0.703788        -1.089494
 C         3.069376         0.780011         1.203744
 O         1.654216         0.771964         1.062492
 H        -0.494320        -0.848744         0.070934
 H        -0.311020         0.781588        -0.844417
 H        -0.072206        -0.712493        -1.569894
 H         1.569295        -1.776000         1.104931
 H         2.525233        -2.223107        -0.279960
 H         3.944263        -1.264219         1.771568
 H         4.290732         1.763044        -0.730899
 H         1.798484         1.684375        -1.294916
 H         2.525523         0.305991        -2.063171
 H         3.478936         1.569231         1.819344
