19
Iteration:   939charge 0 multiplicity 1
 C         0.050299        -0.353721        -0.546292
 C         1.489871        -0.123165        -0.112817
 C         2.322202        -1.304317         0.312106
 C         3.539239        -0.596038         0.944029
 O         4.449996        -0.189930        -0.092258
 C         3.610160         0.974254        -0.278547
 C         2.359870         0.658999        -1.126589
 C         3.041472         0.768733         1.122358
 O         1.618598         0.793532         1.099073
 H        -0.453850        -0.932115         0.242061
 H        -0.466700         0.659569        -0.701249
 H        -0.070532        -0.713383        -1.597040
 H         1.738094        -1.836098         1.001175
 H         2.634584        -2.015963        -0.552894
 H         4.056513        -1.253482         1.594956
 H         4.125095         1.950203        -0.446095
 H         1.756205         1.568522        -1.268067
 H         2.527336         0.052592        -2.004458
 H         3.417650         1.341760         2.018375
