19
Iteration:  2965
 C        -0.003919        -0.180993        -0.389922
 C         1.511617        -0.061204        -0.223255
 C         2.231796        -1.395960         0.296215
 C         3.439514        -0.702093         0.927215
 O         4.549962        -0.142390         0.054312
 C         3.699545         0.917557        -0.285863
 C         2.494702         0.634548        -1.199242
 C         3.003771         0.787629         1.095147
 O         1.541636         0.749873         0.978863
 H        -0.310623        -0.858405         0.418180
 H        -0.447367         0.832022        -0.213707
 H        -0.355197        -0.504001        -1.348347
 H         1.667100        -1.755090         1.156772
 H         2.506462        -2.155267        -0.497934
 H         3.911797        -1.222341         1.813252
 H         4.371834         1.698945        -0.790473
 H         2.078035         1.577886        -1.567673
 H         2.711426         0.024786        -1.986470
 H         3.195778         1.422476         2.004309
