19
Iteration:  2406
 C        -0.046977        -0.323167        -0.533800
 C         1.479636        -0.073073        -0.152074
 C         2.255117        -1.301652         0.376947
 C         3.542475        -0.633768         0.933741
 O         4.500886        -0.209417        -0.135153
 C         3.661017         0.926188        -0.291617
 C         2.426340         0.678972        -1.171058
 C         2.997011         0.784448         1.214143
 O         1.619609         0.824258         1.103814
 H        -0.484383        -0.860554         0.325078
 H        -0.463725         0.591130        -0.863980
 H         0.036251        -0.982670        -1.406794
 H         1.622492        -1.884171         1.084752
 H         2.498532        -1.947626        -0.416345
 H         4.041071        -1.338945         1.664989
 H         4.212200         1.802326        -0.512399
 H         2.016701         1.469017        -1.690898
 H         2.745379        -0.100800        -1.941319
 H         3.389688         1.499835         1.910137
