19
Iteration:  3752
 C         0.212035        -0.339949        -0.665286
 C         1.514448         0.012189        -0.079472
 C         2.228531        -1.345909         0.548185
 C         3.526967        -0.714973         0.947119
 O         4.309654        -0.323681        -0.295546
 C         3.668518         0.958957        -0.219498
 C         2.454144         0.831342        -1.088686
 C         2.983710         0.758353         1.178201
 O         1.560806         0.842769         1.063119
 H        -0.403975        -0.819698         0.011380
 H        -0.076364         0.541961        -1.268438
 H         0.424779        -1.068119        -1.448427
 H         1.553458        -1.878425         1.263899
 H         2.400166        -2.188307        -0.113318
 H         4.170970        -1.167361         1.670519
 H         4.435694         1.778248        -0.280430
 H         1.965238         1.775764        -1.561921
 H         2.598965         0.260047        -1.930817
 H         3.252337         1.317161         2.091829
