19
Iteration:  3264charge 0 multiplicity 1
 C        -0.019202        -0.219400        -0.513591
 C         1.549184        -0.076725        -0.183029
 C         2.306042        -1.322596         0.341097
 C         3.575170        -0.635358         0.976392
 O         4.495551        -0.246378        -0.005412
 C         3.636398         0.924599        -0.352205
 C         2.421879         0.703694        -1.199786
 C         2.950734         0.763225         1.169587
 O         1.550290         0.745443         1.035590
 H        -0.543201        -0.875337         0.137357
 H        -0.420646         0.792474        -0.444137
 H        -0.164161        -0.690462        -1.521575
 H         1.780513        -1.860357         1.200712
 H         2.662943        -2.044575        -0.390154
 H         3.935625        -1.190495         1.844583
 H         4.235612         1.859428        -0.480281
 H         2.075382         1.659493        -1.361180
 H         2.571945         0.159241        -2.195818
 H         3.407034         1.328663         2.029442
