19
Iteration:  3641charge 0 multiplicity 1
 C         0.037551        -0.231207        -0.518197
 C         1.501106        -0.082395        -0.170674
 C         2.254380        -1.239407         0.300800
 C         3.519089        -0.735565         0.932969
 O         4.542380        -0.183736        -0.026979
 C         3.666339         0.932667        -0.253502
 C         2.452190         0.618028        -1.171856
 C         2.976976         0.791743         1.174267
 O         1.536682         0.759488         1.034819
 H        -0.487057        -0.981626         0.051511
 H        -0.345346         0.696268        -0.160578
 H        -0.217364        -0.371618        -1.616489
 H         1.705826        -1.604568         1.228252
 H         2.261719        -2.079920        -0.407398
 H         3.982890        -1.419628         1.644513
 H         4.326938         1.751160        -0.521723
 H         2.032905         1.572356        -1.740356
 H         2.650361        -0.068892        -2.020203
 H         3.252693         1.423162         2.056541
