19
Iteration:   630charge 0 multiplicity 1
 C        -0.062841        -0.252339        -0.277387
 C         1.493278        -0.097374        -0.239332
 C         2.355619        -1.369849         0.249105
 C         3.546927        -0.625245         0.921436
 O         4.498071        -0.168119        -0.024443
 C         3.634154         0.979663        -0.193467
 C         2.445375         0.617166        -1.244652
 C         3.003180         0.818309         1.160954
 O         1.560184         0.735373         0.939020
 H        -0.555815        -0.818449         0.586671
 H        -0.418718         0.798610        -0.313783
 H        -0.459987        -0.800205        -1.181445
 H         1.716149        -2.066220         0.945196
 H         2.799464        -1.923125        -0.521937
 H         4.052646        -1.241256         1.792590
 H         4.133998         1.913246        -0.550179
 H         2.041889         1.479879        -1.677574
 H         2.810882         0.025741        -2.085744
 H         3.277266         1.487113         2.013446
