19
Iteration:  1114charge 0 multiplicity 1
 C         0.246651        -0.459371        -0.722563
 C         1.505646        -0.049843        -0.086276
 C         2.242616        -1.235953         0.466124
 C         3.573714        -0.676612         0.956076
 O         4.383994        -0.305100        -0.230958
 C         3.563943         0.974166        -0.290152
 C         2.260822         0.802613        -1.070142
 C         3.051404         0.816246         1.150594
 O         1.619718         0.801521         1.166783
 H        -0.283072        -1.012416         0.074324
 H        -0.372963         0.403506        -0.905677
 H         0.393767        -1.163953        -1.519437
 H         1.578195        -1.608090         1.218817
 H         2.517992        -1.967864        -0.456452
 H         4.213475        -1.086867         1.774367
 H         4.240991         1.755038        -0.448392
 H         1.732927         1.760776        -1.334189
 H         2.459200         0.376886        -2.084008
 H         3.436238         1.320190         2.028797
