19
Iteration:  1652
 C        -0.012407        -0.214338        -0.378214
 C         1.509401        -0.137388        -0.205300
 C         2.399763        -1.338681         0.282977
 C         3.523621        -0.644009         0.995708
 O         4.574461        -0.157217        -0.107453
 C         3.574252         1.000478        -0.232978
 C         2.425410         0.608046        -1.151744
 C         2.940244         0.771216         1.115414
 O         1.544819         0.718246         0.995394
 H        -0.544770        -0.600724         0.466714
 H        -0.321211         0.846702        -0.528036
 H        -0.396916        -0.844828        -1.204510
 H         1.847259        -1.958659         1.060088
 H         2.692687        -1.860167        -0.628201
 H         4.019689        -1.179027         1.834754
 H         4.093639         1.912069        -0.661502
 H         1.907458         1.461788        -1.468098
 H         2.617106         0.036378        -2.018289
 H         3.174399         1.438615         1.990753
