19
Iteration:  2277
 C         0.239972        -0.351547        -0.639918
 C         1.554645        -0.094972        -0.110574
 C         2.287766        -1.331359         0.486891
 C         3.600502        -0.659532         0.982785
 O         4.266202        -0.353910        -0.175021
 C         3.629044         0.989278        -0.325938
 C         2.369106         0.844881        -1.173121
 C         2.965144         0.864655         1.142295
 O         1.600527         0.785964         1.111174
 H        -0.320934        -0.752512         0.211806
 H        -0.354192         0.550392        -0.787334
 H         0.190993        -1.148772        -1.422670
 H         1.735731        -1.808926         1.373839
 H         2.519126        -1.996166        -0.258769
 H         4.139564        -1.388039         1.655887
 H         4.326200         1.796702        -0.528605
 H         1.710060         1.736493        -1.207289
 H         2.486831         0.306910        -2.175003
 H         3.258061         1.428514         1.972544
