19
Iteration:  3598charge 0 multiplicity 1
 C         0.263333        -0.363522        -0.646695
 C         1.578592        -0.071132        -0.117769
 C         2.224477        -1.313154         0.424823
 C         3.492089        -0.694005         0.975975
 O         4.274994        -0.376230        -0.203186
 C         3.700421         0.955504        -0.268476
 C         2.347282         0.780985        -1.097197
 C         3.045052         0.872687         1.201940
 O         1.587999         0.855170         1.099131
 H        -0.511780        -0.902124        -0.161503
 H        -0.220646         0.493206        -1.077734
 H         0.497609        -0.910006        -1.614178
 H         1.478189        -1.696859         1.183632
 H         2.582183        -2.007477        -0.364438
 H         4.078478        -1.299505         1.657211
 H         4.325116         1.768392        -0.649823
 H         1.750878         1.779090        -0.894341
 H         2.469278         0.395535        -2.060512
 H         3.241033         1.480703         2.141368
