19
Iteration:  1933
 C        -0.064631        -0.128922        -0.293237
 C         1.546991        -0.160059        -0.205061
 C         2.416663        -1.443118         0.183528
 C         3.549230        -0.657142         1.004356
 O         4.502553        -0.116712         0.059016
 C         3.571379         1.030314        -0.338890
 C         2.426441         0.554054        -1.239182
 C         2.945352         0.810097         1.185531
 O         1.571502         0.714071         0.933300
 H        -0.571725        -0.473648         0.567140
 H        -0.436233         0.900039        -0.417950
 H        -0.453560        -0.786716        -1.081294
 H         1.841389        -2.090698         0.790976
 H         2.753327        -2.155707        -0.726487
 H         4.176806        -1.135249         1.771054
 H         4.126510         1.969509        -0.556311
 H         1.864777         1.485624        -1.616807
 H         2.875520         0.125408        -2.114186
 H         3.259347         1.314726         2.105788
