19
Iteration:  1900charge 0 multiplicity 1
 C        -0.018341        -0.292935        -0.445537
 C         1.473011        -0.068736        -0.146046
 C         2.317685        -1.356555         0.275091
 C         3.550225        -0.630238         0.980034
 O         4.525443        -0.165826        -0.053301
 C         3.634602         1.004935        -0.298561
 C         2.423025         0.622437        -1.162160
 C         2.995066         0.821878         1.158869
 O         1.571504         0.717135         1.013796
 H        -0.444359        -0.739677         0.440813
 H        -0.541134         0.651422        -0.696661
 H        -0.117026        -0.924786        -1.350887
 H         1.652084        -1.767333         1.018166
 H         2.614903        -2.085898        -0.640731
 H         4.041517        -1.251425         1.770598
 H         4.215089         1.913492        -0.686345
 H         1.910509         1.605361        -1.494113
 H         2.702965        -0.007709        -2.010404
 H         3.230706         1.352114         2.106260
