19
Iteration:  3244
 C         0.024544        -0.091277        -0.397918
 C         1.492367        -0.179255        -0.226440
 C         2.321853        -1.434781         0.202229
 C         3.453285        -0.700921         1.070285
 O         4.506909        -0.145544         0.026102
 C         3.627565         0.967326        -0.247896
 C         2.365167         0.618921        -1.179416
 C         2.971531         0.858911         1.109302
 O         1.641596         0.712581         0.929198
 H        -0.476446        -0.488382         0.447342
 H        -0.179849         1.023244        -0.517754
 H        -0.331750        -0.783374        -1.166349
 H         1.757700        -2.124493         0.915204
 H         2.937162        -1.900856        -0.598254
 H         3.976064        -1.253512         1.891846
 H         4.268584         1.817762        -0.484955
 H         1.798546         1.415831        -1.511435
 H         2.841790         0.023120        -2.051072
 H         3.272588         1.503692         1.990485
