19
Iteration:  1653
 C        -0.012107        -0.220751        -0.386289
 C         1.502245        -0.133673        -0.209403
 C         2.404981        -1.338066         0.284999
 C         3.524844        -0.640419         1.005870
 O         4.565180        -0.160887        -0.118296
 C         3.580503         0.997664        -0.231302
 C         2.429924         0.609804        -1.145503
 C         2.948767         0.765715         1.107110
 O         1.538463         0.718312         1.000965
 H        -0.539214        -0.615431         0.451369
 H        -0.308321         0.830709        -0.531942
 H        -0.405802        -0.841709        -1.195773
 H         1.838430        -1.948854         1.089655
 H         2.685605        -1.826614        -0.581498
 H         4.010298        -1.158105         1.833608
 H         4.100330         1.965436        -0.652821
 H         1.929186         1.498372        -1.452805
 H         2.616461         0.037713        -2.021794
 H         3.185691         1.427997         1.993918
