19
Iteration:  4869
 C         0.103188        -0.341275        -0.692755
 C         1.511984        -0.072773        -0.169135
 C         2.197110        -1.273673         0.532505
 C         3.503225        -0.676056         0.999452
 O         4.334519        -0.391407        -0.155967
 C         3.740097         0.921855        -0.212157
 C         2.480454         0.759720        -1.126921
 C         3.023783         0.844526         1.138351
 O         1.622480         0.862027         1.021879
 H        -0.545913         0.295680        -0.136735
 H         0.067813        -0.282827        -1.841186
 H        -0.111263        -1.402067        -0.485798
 H         1.495769        -1.435863         1.385834
 H         2.246740        -2.120146        -0.173719
 H         4.042401        -1.126503         1.888035
 H         4.320587         1.808810        -0.556738
 H         1.945504         1.832718        -1.182361
 H         2.599842         0.340487        -2.220566
 H         3.225872         1.382769         1.998528
