19
Iteration:   616charge 0 multiplicity 1
 C        -0.022021        -0.205551        -0.328540
 C         1.478520        -0.113329        -0.205221
 C         2.363397        -1.324935         0.192611
 C         3.467805        -0.663572         1.012745
 O         4.551007        -0.098941         0.037952
 C         3.645308         0.945246        -0.406000
 C         2.442061         0.601612        -1.240508
 C         2.897294         0.772209         1.133450
 O         1.594606         0.739212         1.038190
 H        -0.025670        -0.687581         0.720517
 H        -0.650448         0.700181        -0.195865
 H        -0.415048        -0.842141        -1.152426
 H         1.891670        -2.056778         0.851813
 H         2.737697        -1.895859        -0.682505
 H         4.002671        -1.373049         1.835887
 H         4.246329         1.761783        -0.596360
 H         2.007971         1.567580        -1.569047
 H         2.664939        -0.095827        -2.107881
 H         3.258918         1.316900         1.937661
