19
Iteration:  3377
 C        -0.007339        -0.135868        -0.350394
 C         1.450725        -0.046971        -0.214129
 C         2.297898        -1.278860         0.211217
 C         3.518965        -0.705771         0.871348
 O         4.529178        -0.130105         0.061918
 C         3.579701         0.971782        -0.235579
 C         2.515764         0.493559        -1.230321
 C         2.938772         0.766715         1.204731
 O         1.602808         0.739633         0.980629
 H        -0.653481        -0.258390         0.582213
 H        -0.356651         0.701367        -0.995902
 H        -0.045657        -1.023094        -0.972607
 H         1.930099        -2.091817         0.899367
 H         2.474719        -1.937525        -0.735824
 H         3.945384        -1.279543         1.743931
 H         4.162219         1.828833        -0.487990
 H         2.076291         1.301077        -1.830933
 H         2.889787        -0.233163        -1.906918
 H         3.248995         1.245045         2.107921
