19
Iteration:   713
 C         0.138910        -0.410344        -0.548552
 C         1.579320        -0.076099        -0.081902
 C         2.269129        -1.325239         0.413929
 C         3.580530        -0.667458         0.920470
 O         4.329658        -0.244638        -0.185899
 C         3.611374         0.985661        -0.286861
 C         2.391198         0.772372        -1.109985
 C         2.977529         0.798274         1.196713
 O         1.630473         0.797777         1.045484
 H        -0.581875        -0.696049         0.233352
 H        -0.245002         0.496850        -0.968856
 H         0.178578        -1.132740        -1.350051
 H         1.649062        -1.679072         1.205958
 H         2.429249        -2.167291        -0.391297
 H         4.088341        -1.301070         1.667765
 H         4.163332         1.885048        -0.537254
 H         1.644497         1.645152        -1.210167
 H         2.773814         0.386010        -2.129453
 H         3.278879         1.561102         1.844957
