19
Iteration:  4842charge 0 multiplicity 1
 C         0.107976        -0.346946        -0.707275
 C         1.464366        -0.012695        -0.084285
 C         2.227273        -1.289772         0.400564
 C         3.441922        -0.698499         0.980866
 O         4.425305        -0.333862        -0.056027
 C         3.682995         0.911533        -0.247816
 C         2.339721         0.679753        -1.173490
 C         3.111862         0.800337         1.172881
 O         1.655626         0.937262         1.047551
 H        -0.565874         0.545383        -0.512777
 H         0.362943        -0.521084        -1.724826
 H        -0.278945        -1.293823        -0.254536
 H         1.625093        -1.677352         1.207012
 H         2.370205        -1.941276        -0.467616
 H         3.918100        -1.166330         1.816024
 H         4.303451         1.755670        -0.650652
 H         1.912240         1.576761        -1.441205
 H         2.461711         0.007864        -1.964569
 H         3.400519         1.312972         2.198580
