19
Iteration:  3283charge 0 multiplicity 1
 C         0.056025        -0.388725        -0.674945
 C         1.492617        -0.025628        -0.101929
 C         2.211676        -1.283158         0.419136
 C         3.498199        -0.689565         0.945527
 O         4.474191        -0.263912        -0.203732
 C         3.717195         0.969296        -0.172846
 C         2.394510         0.683886        -1.064045
 C         3.049670         0.810708         1.166340
 O         1.590244         0.842924         1.070012
 H        -0.378945        -1.211350        -0.049147
 H        -0.617051         0.435524        -0.610716
 H         0.197375        -0.621413        -1.776856
 H         1.589381        -1.784823         1.156134
 H         2.243466        -2.096909        -0.282040
 H         4.019996        -1.273676         1.691788
 H         4.228293         1.864209        -0.628224
 H         1.948721         1.705902        -1.467069
 H         2.715629         0.094510        -1.929527
 H         3.302740         1.479505         1.994344
