19
Iteration:  1477
 C        -0.080618        -0.190512        -0.304665
 C         1.453779        -0.152598        -0.208083
 C         2.396142        -1.321068         0.243725
 C         3.560808        -0.618192         0.968898
 O         4.534066        -0.118259         0.024803
 C         3.595312         0.981415        -0.278848
 C         2.406113         0.660180        -1.199102
 C         2.989163         0.781697         1.134870
 O         1.581852         0.623527         0.940100
 H        -0.553861        -0.577118         0.581327
 H        -0.486162         0.789424        -0.558394
 H        -0.432985        -0.826115        -1.135093
 H         1.931266        -2.110466         0.884345
 H         2.926402        -1.834715        -0.588491
 H         4.024277        -1.178662         1.838471
 H         4.270702         1.786058        -0.629067
 H         2.079256         1.529294        -1.852974
 H         2.659585        -0.113742        -1.945162
 H         3.195932         1.534144         1.850101
