19
Iteration:  2369charge 0 multiplicity 1
 C        -0.016414        -0.147720        -0.288517
 C         1.466410        -0.258306        -0.199337
 C         2.299318        -1.481938         0.228648
 C         3.508890        -0.633937         1.016320
 O         4.553090        -0.123193         0.021070
 C         3.646632         0.934619        -0.314806
 C         2.475159         0.656283        -1.226732
 C         2.938373         0.825804         1.066991
 O         1.577342         0.783627         0.951593
 H        -0.589501        -0.349666         0.680417
 H        -0.507191         0.870715        -0.336486
 H        -0.540418        -0.757110        -1.043182
 H         1.802353        -2.275508         0.778544
 H         2.927839        -2.035542        -0.634449
 H         4.018505        -1.088948         1.827251
 H         4.246555         1.908829        -0.398073
 H         2.070312         1.748163        -1.592691
 H         2.752295         0.078256        -2.111493
 H         3.231062         1.368677         2.036554
