19
Iteration:  1685charge 0 multiplicity 1
 C         0.199286        -0.446408        -0.591481
 C         1.527978        -0.076254        -0.123655
 C         2.267223        -1.316356         0.448628
 C         3.517437        -0.723924         0.973145
 O         4.342241        -0.265536        -0.203222
 C         3.596342         1.067936        -0.289389
 C         2.314552         0.782435        -1.120606
 C         3.040048         0.836295         1.188808
 O         1.681636         0.795011         1.079186
 H        -0.415426        -1.073778         0.025806
 H        -0.333798         0.460655        -0.989803
 H         0.401909        -0.920766        -1.585563
 H         1.640125        -1.701463         1.367553
 H         2.269833        -2.060747        -0.376532
 H         4.026795        -1.352727         1.745564
 H         4.121912         2.004058        -0.715358
 H         1.794411         1.685508        -1.229110
 H         2.560357         0.324554        -2.041795
 H         3.315214         1.453507         2.123014
