19
Iteration:  3866
 C         0.157477        -0.269541        -0.752587
 C         1.509628        -0.091991        -0.103818
 C         2.187649        -1.336172         0.437837
 C         3.534625        -0.700540         0.981249
 O         4.400592        -0.344774        -0.153512
 C         3.693455         0.973509        -0.297138
 C         2.365203         0.748706        -1.043138
 C         3.085262         0.813245         1.175763
 O         1.568094         0.843980         1.092006
 H        -0.417643        -0.824852         0.010911
 H        -0.296360         0.566813        -1.172972
 H         0.035885        -0.995244        -1.508565
 H         1.594796        -1.858524         1.242575
 H         2.548133        -1.972615        -0.408852
 H         3.953129        -1.097297         1.932872
 H         4.347901         1.794599        -0.510190
 H         1.781706         1.648373        -0.967300
 H         2.396743         0.361039        -2.166321
 H         3.473842         1.516208         1.919084
