19
Iteration:  4073
 C        -0.049134        -0.221573        -0.522486
 C         1.505518        -0.052388        -0.143520
 C         2.246511        -1.305324         0.254654
 C         3.535680        -0.705954         0.904128
 O         4.559300        -0.217548        -0.040297
 C         3.721199         0.975143        -0.240831
 C         2.477813         0.660533        -1.157280
 C         2.927488         0.766154         1.142661
 O         1.547613         0.757034         1.079726
 H        -0.680829        -0.314350         0.445859
 H        -0.393374         0.625350        -1.109988
 H        -0.228488        -1.136143        -1.180900
 H         1.642750        -1.832944         1.021814
 H         2.465382        -1.969794        -0.598079
 H         3.907391        -1.313826         1.720815
 H         4.281324         1.861702        -0.433793
 H         2.070883         1.602642        -1.159519
 H         2.753405         0.037429        -2.049599
 H         3.410108         1.184821         2.029077
