19
Iteration:  1442
 C         0.092260        -0.424275        -0.583961
 C         1.505199        -0.062507        -0.087457
 C         2.264807        -1.321354         0.445363
 C         3.559420        -0.677803         0.868078
 O         4.463849        -0.199848        -0.167607
 C         3.610240         0.991386        -0.273354
 C         2.329398         0.734452        -1.085814
 C         3.048993         0.770459         1.171416
 O         1.569051         0.838227         1.063079
 H        -0.583307        -0.836873         0.209068
 H        -0.297043         0.534246        -0.924851
 H         0.304358        -1.064908        -1.445861
 H         1.662234        -1.904175         1.106665
 H         2.567508        -1.997228        -0.508345
 H         4.182609        -1.287144         1.673241
 H         4.119810         1.886916        -0.459859
 H         1.809790         1.609762        -1.419411
 H         2.754043         0.076527        -1.875972
 H         3.344286         1.423896         2.030959
