19
Iteration:  1750charge 0 multiplicity 1
 C         0.084450        -0.223982        -0.467251
 C         1.528252        -0.135744        -0.162709
 C         2.347041        -1.433946         0.343177
 C         3.552477        -0.683171         0.956630
 O         4.472298        -0.175227        -0.074417
 C         3.552150         1.008782        -0.286675
 C         2.400168         0.685927        -1.191284
 C         2.936143         0.790570         1.119220
 O         1.560593         0.780589         1.026888
 H        -0.321456        -0.649977         0.454844
 H        -0.368448         0.795833        -0.552111
 H        -0.106954        -1.030644        -1.208045
 H         1.843490        -2.009682         1.108103
 H         2.790509        -2.079132        -0.425775
 H         4.096546        -1.063436         1.851232
 H         4.104595         1.876390        -0.507322
 H         1.898439         1.604888        -1.466968
 H         2.702102         0.250315        -2.123767
 H         3.340423         1.293435         2.056612
