19
Iteration:  3292
 C         0.104080        -0.445379        -0.707898
 C         1.526624        -0.020121        -0.043040
 C         2.136481        -1.295491         0.444357
 C         3.544435        -0.740607         0.904261
 O         4.344446        -0.273331        -0.163719
 C         3.654833         1.045293        -0.229324
 C         2.419147         0.706382        -1.058356
 C         3.096335         0.820473         1.184617
 O         1.650842         0.871362         1.042012
 H        -0.445889        -1.391251        -0.337688
 H        -0.535589         0.427680        -0.670681
 H         0.287892        -0.754921        -1.754190
 H         1.639745        -1.667379         1.313271
 H         2.276189        -1.927247        -0.446616
 H         4.013889        -1.330799         1.705427
 H         4.311081         1.924124        -0.358666
 H         1.860694         1.697979        -1.462153
 H         2.683110         0.057686        -1.835652
 H         3.516807         1.328344         2.024510
