19
Iteration:  2563charge 0 multiplicity 1
 C         0.155239        -0.345309        -0.623852
 C         1.508500        -0.035740        -0.130118
 C         2.249460        -1.265934         0.419494
 C         3.575490        -0.685476         0.985723
 O         4.307552        -0.277227        -0.181906
 C         3.620422         0.996065        -0.261334
 C         2.331163         0.703655        -1.136462
 C         3.085761         0.714151         1.208856
 O         1.643639         0.847840         1.067457
 H        -0.489384        -0.822901         0.119848
 H        -0.321576         0.657044        -0.999502
 H         0.155433        -1.151339        -1.417785
 H         1.618554        -1.700793         1.191128
 H         2.664621        -2.041996        -0.305181
 H         4.067459        -1.237084         1.792723
 H         4.377825         1.818266        -0.551459
 H         1.751951         1.621959        -1.405268
 H         2.581758         0.112455        -1.943484
 H         3.375729         1.414389         1.966345
