19
Iteration:  2492
 C         0.044546        -0.250357        -0.449876
 C         1.534781        -0.060987        -0.164114
 C         2.250116        -1.344460         0.266181
 C         3.555840        -0.695461         0.974173
 O         4.471902        -0.168317        -0.030314
 C         3.582721         0.942261        -0.287829
 C         2.427703         0.577267        -1.181824
 C         3.036662         0.748536         1.154654
 O         1.562051         0.896688         1.034607
 H        -0.453127        -0.790831         0.410437
 H        -0.508286         0.640687        -0.627929
 H        -0.083758        -0.950969        -1.250953
 H         1.678096        -1.922354         0.996266
 H         2.443541        -1.928019        -0.619722
 H         4.157382        -1.379099         1.611468
 H         4.114936         1.822335        -0.462275
 H         1.894512         1.454923        -1.542093
 H         2.745740        -0.158572        -2.036422
 H         3.595778         1.339269         1.882377
