19
Iteration:  2756
 C         0.026160        -0.406083        -0.684974
 C         1.466494        -0.067674        -0.088159
 C         2.190175        -1.250622         0.485172
 C         3.549265        -0.671391         0.863904
 O         4.450211        -0.282280        -0.186323
 C         3.698637         0.984047        -0.320536
 C         2.489822         0.728897        -1.060371
 C         3.057386         0.796108         1.206702
 O         1.562905         0.843199         1.126442
 H        -0.425840        -1.182544        -0.163298
 H        -0.599216         0.499943        -0.869175
 H         0.240277        -0.721270        -1.754546
 H         1.583898        -1.564080         1.406314
 H         2.327601        -2.132452        -0.154815
 H         4.027723        -1.416149         1.579120
 H         4.354810         1.771323        -0.686342
 H         1.915996         1.708068        -1.161869
 H         2.657498         0.218742        -2.013540
 H         3.289790         1.262519         2.121080
