19
Iteration:  4331
 C         0.226041        -0.280782        -0.713748
 C         1.470554         0.021810        -0.060232
 C         2.213714        -1.285379         0.346368
 C         3.543160        -0.737292         0.903215
 O         4.406575        -0.361189        -0.169145
 C         3.642662         0.945609        -0.273944
 C         2.369324         0.763901        -1.053298
 C         2.988270         0.774877         1.201540
 O         1.588971         0.832136         1.187912
 H        -0.534419        -0.776073        -0.021383
 H        -0.273271         0.643117        -1.029682
 H         0.422834        -1.013220        -1.474420
 H         1.637257        -1.830780         1.140468
 H         2.408493        -1.857687        -0.611701
 H         4.105828        -1.248362         1.692520
 H         4.229786         1.846179        -0.730716
 H         1.879973         1.608300        -1.445243
 H         2.664610         0.110039        -1.871863
 H         3.398894         1.324720         2.024238
