19
Iteration:  3530charge 0 multiplicity 1
 C         0.003295        -0.120369        -0.414308
 C         1.458066        -0.100442        -0.160649
 C         2.384705        -1.344876         0.166385
 C         3.509701        -0.701882         1.005229
 O         4.539924        -0.189696         0.067541
 C         3.623051         0.925747        -0.305779
 C         2.431824         0.593494        -1.270770
 C         2.925371         0.786866         1.096946
 O         1.545811         0.763629         1.073938
 H        -0.548685        -0.218855         0.560390
 H        -0.284582         0.791927        -0.875993
 H        -0.149978        -0.920186        -1.099822
 H         1.722514        -1.908652         0.824323
 H         2.920328        -1.920142        -0.629072
 H         3.902253        -1.356532         1.845322
 H         4.180711         1.833161        -0.296326
 H         1.896517         1.499545        -1.612646
 H         2.792932        -0.110341        -2.011419
 H         3.479018         1.438248         1.794200
