19
Iteration:   781charge 0 multiplicity 1
 C         0.011149        -0.237626        -0.438675
 C         1.473096        -0.162818        -0.170279
 C         2.368124        -1.396981         0.280196
 C         3.531370        -0.633106         0.953603
 O         4.523052        -0.136969        -0.032532
 C         3.542702         0.984445        -0.291620
 C         2.385653         0.673543        -1.192822
 C         2.985937         0.750924         1.147033
 O         1.635083         0.760246         1.063294
 H        -0.522754        -0.786706         0.395474
 H        -0.404863         0.770206        -0.494672
 H        -0.154951        -0.710301        -1.426727
 H         1.791790        -2.077169         0.993423
 H         2.782287        -1.823527        -0.612169
 H         4.008257        -1.142800         1.927146
 H         4.134641         1.786067        -0.624310
 H         1.923001         1.582080        -1.731162
 H         2.393273        -0.061304        -2.133714
 H         3.263702         1.525218         1.932867
