19
Iteration:  4001charge 0 multiplicity 1
 C         0.105348        -0.269875        -0.608353
 C         1.521218        -0.046419        -0.191676
 C         2.218615        -1.286607         0.450492
 C         3.545508        -0.724810         0.958835
 O         4.413253        -0.282824        -0.141527
 C         3.628217         1.018687        -0.208566
 C         2.409061         0.716504        -1.166471
 C         3.034200         0.669802         1.181136
 O         1.598441         0.789711         1.019115
 H        -0.348635        -1.150521        -0.295141
 H        -0.426128         0.637926        -0.385931
 H         0.186680        -0.248900        -1.714402
 H         1.712424        -1.451759         1.394499
 H         2.287812        -2.186597        -0.143458
 H         4.196420        -1.171939         1.717878
 H         4.165619         1.996497        -0.176919
 H         1.948277         1.751307        -1.210502
 H         2.630330         0.200728        -2.051824
 H         3.230258         1.353995         1.998529
