19
Iteration:  3230
 C        -0.022463        -0.114530        -0.390695
 C         1.518517        -0.163191        -0.190166
 C         2.356818        -1.439398         0.214128
 C         3.500505        -0.607650         0.940390
 O         4.510312        -0.174377        -0.004808
 C         3.613184         0.982344        -0.230158
 C         2.532733         0.543474        -1.181749
 C         2.953102         0.744314         1.180175
 O         1.531057         0.816115         0.986540
 H        -0.407305        -0.166312         0.618767
 H        -0.392105         0.805220        -0.775700
 H        -0.488036        -0.813426        -1.156002
 H         1.726951        -2.227924         0.740506
 H         2.738855        -1.910327        -0.691626
 H         3.873792        -1.157337         1.796336
 H         4.044532         1.975037        -0.617113
 H         2.077231         1.438888        -1.569555
 H         2.781485        -0.129516        -2.035807
 H         3.273063         1.347888         2.045320
