19
Iteration:  4534
 C         0.045261        -0.160520        -0.412480
 C         1.492067        -0.058786        -0.234749
 C         2.314053        -1.392422         0.237029
 C         3.479860        -0.705813         0.951508
 O         4.491989        -0.255335        -0.093846
 C         3.653328         0.995689        -0.163570
 C         2.526199         0.699607        -1.174926
 C         2.949570         0.768757         1.214783
 O         1.545265         0.729255         0.978624
 H        -0.354190         0.141428         0.574010
 H        -0.459196         0.746455        -0.914855
 H        -0.394755        -1.132408        -0.699551
 H         1.606629        -2.014948         0.803469
 H         2.779569        -1.972903        -0.593101
 H         3.790149        -1.493288         1.729904
 H         4.216582         1.927655        -0.314779
 H         2.046076         1.694871        -1.589315
 H         2.856890         0.110340        -2.049371
 H         3.111380         1.421893         2.046006
