19
Iteration:   972charge 0 multiplicity 1
 C         0.160831        -0.468439        -0.694543
 C         1.556102        -0.043599        -0.062405
 C         2.255657        -1.299478         0.482813
 C         3.585201        -0.625758         0.928545
 O         4.243452        -0.294682        -0.259793
 C         3.695929         1.010022        -0.258906
 C         2.392028         0.868120        -1.027560
 C         3.065571         0.801471         1.157443
 O         1.584866         0.745464         1.083014
 H        -0.373908        -1.071627         0.064410
 H        -0.606868         0.336042        -0.876425
 H         0.329772        -1.200424        -1.506545
 H         1.634468        -1.533460         1.269387
 H         2.620803        -2.192161        -0.124157
 H         4.230136        -1.185415         1.561640
 H         4.273160         1.858735        -0.572082
 H         1.726817         1.726583        -1.166780
 H         2.402037         0.453223        -2.021432
 H         3.288504         1.463016         2.057058
