19
Iteration:  1188charge 0 multiplicity 1
 C        -0.077534        -0.238820        -0.356050
 C         1.440714        -0.134153        -0.181412
 C         2.290709        -1.362276         0.202525
 C         3.533344        -0.656712         0.916037
 O         4.593304        -0.066040         0.034675
 C         3.648890         1.067832        -0.265886
 C         2.415611         0.534826        -1.165998
 C         2.989025         0.747543         1.122892
 O         1.582334         0.720961         1.007065
 H        -0.610950        -0.688849         0.442171
 H        -0.331061         0.806747        -0.574857
 H        -0.283798        -0.920502        -1.163613
 H         1.884574        -2.084913         0.957912
 H         2.648795        -1.798885        -0.741509
 H         4.134324        -1.194984         1.785995
 H         4.012479         2.063174        -0.590652
 H         2.000259         1.359144        -1.767318
 H         2.711031        -0.128700        -1.971097
 H         3.453374         1.387214         1.857498
