19
Iteration:   225
 C         0.025882        -0.358753        -0.647958
 C         1.496597        -0.087385        -0.159643
 C         2.263299        -1.266049         0.399665
 C         3.573596        -0.647249         0.926610
 O         4.397566        -0.237854        -0.205313
 C         3.624002         0.934409        -0.240119
 C         2.379980         0.724169        -1.052869
 C         3.043528         0.793470         1.203980
 O         1.642612         0.771995         1.145639
 H        -0.603543        -0.913905         0.012167
 H        -0.443672         0.550920        -1.069304
 H         0.099079        -0.998466        -1.548117
 H         1.728254        -1.738185         1.221518
 H         2.539207        -1.962943        -0.341409
 H         4.240774        -1.022428         1.789880
 H         4.065910         1.913925        -0.656884
 H         1.935325         1.708716        -1.375250
 H         2.741624         0.232048        -2.073010
 H         3.486738         1.345764         2.007265
