19
Iteration:  4339
 C         0.164458        -0.245085        -0.633184
 C         1.559467        -0.050006        -0.057586
 C         2.181748        -1.323216         0.319651
 C         3.518522        -0.712528         0.924417
 O         4.421180        -0.310403        -0.129984
 C         3.604112         0.995228        -0.278968
 C         2.382850         0.762862        -1.100190
 C         2.977782         0.748999         1.193410
 O         1.632274         0.814014         1.120623
 H        -0.476430        -0.887233        -0.009935
 H        -0.279119         0.777820        -0.996284
 H         0.145442        -0.712627        -1.658555
 H         1.622054        -1.825649         1.138114
 H         2.318920        -2.152069        -0.402961
 H         4.136944        -1.245388         1.711813
 H         4.430819         1.689754        -0.578043
 H         1.870739         1.628401        -1.516286
 H         2.675846         0.114005        -1.868486
 H         3.347576         1.216356         2.089021
