19
Iteration:  3236
 C        -0.022488        -0.082029        -0.386429
 C         1.581036        -0.184975        -0.227880
 C         2.303949        -1.455835         0.189745
 C         3.478288        -0.635928         1.012730
 O         4.519715        -0.152164        -0.005609
 C         3.624457         0.969035        -0.259248
 C         2.431707         0.547099        -1.148319
 C         2.950553         0.820962         1.168431
 O         1.579739         0.775951         0.949848
 H        -0.422867        -0.331681         0.657507
 H        -0.371935         0.960591        -0.703123
 H        -0.345094        -0.768764        -1.131088
 H         1.873235        -2.290997         0.699282
 H         2.929618        -2.019408        -0.558366
 H         3.757399        -1.249680         1.896473
 H         4.053364         1.918841        -0.448995
 H         1.944153         1.521777        -1.606743
 H         2.814255        -0.036917        -1.972941
 H         3.324235         1.350524         2.033580
