19
Iteration:   697
 C         0.150350        -0.408222        -0.714934
 C         1.463596        -0.111808        -0.077291
 C         2.307623        -1.359134         0.484513
 C         3.555578        -0.659733         0.983287
 O         4.315033        -0.297688        -0.274506
 C         3.601335         1.016306        -0.270881
 C         2.304690         0.789105        -1.051757
 C         3.114653         0.862867         1.167740
 O         1.617279         0.855936         1.112225
 H        -0.570499        -0.912431        -0.053808
 H        -0.286420         0.475390        -1.247748
 H         0.396226        -1.240476        -1.412493
 H         1.800613        -2.036896         1.249242
 H         2.558154        -2.048792        -0.268936
 H         4.233027        -1.088119         1.741292
 H         4.413024         1.754307        -0.560281
 H         1.930238         1.772006        -1.062352
 H         2.391992         0.321769        -1.998065
 H         3.551844         1.297886         2.124229
