19
Iteration:  2639charge 0 multiplicity 1
 C         0.009637        -0.166265        -0.440632
 C         1.530561        -0.128670        -0.108234
 C         2.307934        -1.383896         0.318050
 C         3.511465        -0.629872         0.970183
 O         4.412117        -0.236434        -0.087658
 C         3.689004         1.000708        -0.322780
 C         2.487030         0.646246        -1.151532
 C         2.953338         0.812490         1.158484
 O         1.575051         0.705212         0.987927
 H        -0.490605        -0.688743         0.390201
 H        -0.358745         0.931061        -0.492946
 H        -0.411139        -0.561728        -1.390651
 H         1.724520        -2.094448         0.859747
 H         2.804544        -1.834731        -0.580393
 H         4.069105        -0.913945         1.890601
 H         4.342056         1.909855        -0.608720
 H         1.864962         1.504119        -1.556529
 H         2.807498        -0.011260        -1.891836
 H         3.300810         1.220152         2.056225
