19
Iteration:  1877
 C         0.084613        -0.466240        -0.655093
 C         1.488259        -0.093534        -0.082595
 C         2.282185        -1.312781         0.459906
 C         3.514434        -0.682602         0.943362
 O         4.410240        -0.211272        -0.213464
 C         3.628110         0.952110        -0.247565
 C         2.349045         0.748740        -1.089978
 C         3.054438         0.794364         1.159644
 O         1.619774         0.892757         1.096778
 H        -0.543130        -1.014086         0.053752
 H        -0.395818         0.467175        -0.992517
 H         0.220431        -0.991572        -1.620459
 H         1.675902        -1.788072         1.295401
 H         2.502248        -1.983879        -0.502911
 H         4.166403        -1.229532         1.658361
 H         4.287343         1.937696        -0.352592
 H         1.743743         1.655753        -1.418744
 H         2.796358         0.180818        -1.919311
 H         3.566651         1.360157         1.979514
