19
Iteration:  4603charge 0 multiplicity 1
 C         0.079943        -0.292773        -0.692457
 C         1.507643        -0.065337        -0.155583
 C         2.231516        -1.311870         0.396162
 C         3.472115        -0.703400         0.978422
 O         4.329825        -0.324410        -0.222682
 C         3.681038         0.968034        -0.188311
 C         2.478453         0.771576        -1.071384
 C         3.058083         0.810109         1.245489
 O         1.640244         0.820399         1.093440
 H        -0.326080        -1.321157        -0.455759
 H        -0.757914         0.247843        -0.383958
 H         0.132202        -0.181961        -1.777239
 H         1.713757        -1.803241         1.214756
 H         2.493113        -2.090936        -0.331275
 H         4.084176        -1.335524         1.524868
 H         4.346818         1.787107        -0.472632
 H         1.921148         1.800257        -1.383708
 H         2.771387         0.267592        -2.033364
 H         3.309605         1.353412         2.184303
