19
Iteration:   849charge 0 multiplicity 1
 C         0.130175        -0.480129        -0.668914
 C         1.489506        -0.025736        -0.103469
 C         2.246557        -1.275768         0.380401
 C         3.547656        -0.603528         0.956109
 O         4.378070        -0.304953        -0.221639
 C         3.640186         0.978025        -0.309952
 C         2.287632         0.785765        -1.038801
 C         3.043498         0.852371         1.218200
 O         1.671718         0.769979         1.143656
 H        -0.474645        -0.913599         0.123628
 H        -0.454243         0.377068        -1.134001
 H         0.333242        -1.194292        -1.491046
 H         1.662348        -1.721614         1.218759
 H         2.573795        -1.954594        -0.345908
 H         4.159623        -1.272846         1.659836
 H         4.222807         1.827832        -0.551576
 H         1.934961         1.798961        -1.373214
 H         2.520738         0.246893        -1.968206
 H         3.416774         1.369706         2.072611
