19
Iteration:  4251charge 0 multiplicity 1
 C        -0.118037        -0.086119        -0.538381
 C         1.461708        -0.081110        -0.175264
 C         2.341340        -1.406703         0.179825
 C         3.498963        -0.720567         0.889482
 O         4.500930        -0.200046         0.019560
 C         3.654480         1.013967        -0.186263
 C         2.451521         0.610038        -1.195717
 C         3.035958         0.780412         1.187766
 O         1.606091         0.759589         1.106810
 H        -0.411342        -0.218912         0.500021
 H        -0.641283         0.893026        -0.940483
 H        -0.346802        -1.029139        -1.163887
 H         1.852948        -2.145808         0.896136
 H         2.872362        -2.045887        -0.585252
 H         3.970366        -1.457226         1.599999
 H         4.132030         2.009322        -0.466291
 H         1.867661         1.312514        -1.755776
 H         2.789950        -0.090874        -1.889011
 H         3.607367         1.279004         2.014362
