19
Iteration:  4523
 C        -0.070764        -0.116209        -0.349670
 C         1.563238        -0.036734        -0.228782
 C         2.292431        -1.398153         0.178085
 C         3.460674        -0.752192         0.961667
 O         4.483700        -0.180079         0.018134
 C         3.657022         0.951939        -0.175606
 C         2.511480         0.721347        -1.244880
 C         2.940656         0.712958         1.148570
 O         1.606105         0.745002         0.994710
 H        -0.585808        -0.059351         0.617527
 H        -0.412054         0.373411        -1.332416
 H        -0.242764        -1.169778        -0.730452
 H         1.775082        -2.050330         0.904228
 H         2.529992        -2.009764        -0.719315
 H         4.134592        -1.208704         1.796906
 H         4.285083         1.842863        -0.302450
 H         2.009043         1.731824        -1.650114
 H         2.777127         0.038117        -2.076688
 H         3.353010         1.253611         1.980133
