19
Iteration:  2807charge 0 multiplicity 1
 C        -0.007316        -0.076745        -0.335597
 C         1.501993        -0.193036        -0.217627
 C         2.408352        -1.466280         0.213773
 C         3.480341        -0.616321         0.998162
 O         4.490449        -0.179134         0.003476
 C         3.726328         0.917568        -0.230669
 C         2.419311         0.624328        -1.204398
 C         2.915493         0.836772         1.102591
 O         1.567097         0.759340         0.930184
 H        -0.384949        -0.587538         0.637594
 H        -0.338279         0.948718        -0.348531
 H        -0.554075        -0.464863        -1.265102
 H         1.949570        -2.225428         0.888175
 H         2.727127        -2.016794        -0.631814
 H         3.838951        -1.093960         1.888500
 H         4.297513         1.795247        -0.412831
 H         1.892365         1.509090        -1.443726
 H         2.621955        -0.041246        -2.123418
 H         3.015548         1.351390         2.116319
