19
Iteration:    94
 C         0.126660        -0.375812        -0.691232
 C         1.553879        -0.133889        -0.105730
 C         2.231306        -1.318617         0.540185
 C         3.615302        -0.640127         0.950104
 O         4.313592        -0.301854        -0.272013
 C         3.636457         1.009516        -0.249742
 C         2.343529         0.803890        -1.100564
 C         3.025900         0.787801         1.189236
 O         1.616918         0.784929         1.087968
 H        -0.556595        -0.772047         0.044298
 H        -0.231609         0.627035        -1.047050
 H         0.254972        -1.030690        -1.577446
 H         1.748028        -1.689279         1.458066
 H         2.489255        -2.174218        -0.047714
 H         4.267510        -1.268605         1.634980
 H         4.293993         2.079988        -0.351184
 H         1.832084         1.770187        -1.194260
 H         2.705123         0.371005        -2.107060
 H         3.224529         1.534253         1.905907
