19
Iteration:  3628charge 0 multiplicity 1
 C        -0.015725        -0.271556        -0.619929
 C         1.460653        -0.008314        -0.157765
 C         2.262991        -1.323186         0.400895
 C         3.564074        -0.685535         0.985788
 O         4.467355        -0.283591        -0.080121
 C         3.681477         0.971974        -0.226309
 C         2.366259         0.692947        -1.185406
 C         3.035531         0.781926         1.207003
 O         1.637674         0.795867         1.029754
 H        -0.495188        -1.200688        -0.182134
 H        -0.723009         0.531592        -0.652490
 H         0.170830        -0.525145        -1.678932
 H         1.593588        -1.776968         1.123484
 H         2.632234        -2.000779        -0.394077
 H         4.069477        -1.251760         1.823678
 H         4.187031         1.855466        -0.555431
 H         1.896061         1.698619        -1.377538
 H         2.657432         0.016874        -2.085233
 H         3.386972         1.333090         2.100314
