19
Iteration:  4220
 C         0.067587        -0.125439        -0.533862
 C         1.471679        -0.085248        -0.119503
 C         2.255083        -1.303885         0.313838
 C         3.546978        -0.687256         0.900003
 O         4.563994        -0.234796         0.000372
 C         3.644638         0.928848        -0.247836
 C         2.369870         0.661427        -1.155172
 C         2.996802         0.764040         1.161464
 O         1.555115         0.711113         1.006601
 H        -0.359450        -0.862010         0.124693
 H        -0.393327         0.919090        -0.466677
 H        -0.031779        -0.437311        -1.566993
 H         1.653774        -2.010964         1.005636
 H         2.623195        -1.953039        -0.561414
 H         4.021296        -1.438855         1.600940
 H         4.119005         1.987549        -0.510544
 H         1.775316         1.564345        -1.327892
 H         2.464055         0.157878        -2.086209
 H         3.311108         1.393170         2.016903
