19
Iteration:   376
 C         0.176966        -0.385028        -0.533638
 C         1.542863        -0.056479        -0.135211
 C         2.269766        -1.363728         0.452877
 C         3.520116        -0.715266         0.932631
 O         4.318875        -0.252090        -0.257827
 C         3.617240         1.054785        -0.241166
 C         2.447801         0.877324        -1.148631
 C         2.988829         0.792203         1.238185
 O         1.607860         0.749504         1.022335
 H        -0.390058        -1.033865         0.148855
 H        -0.479083         0.521906        -0.790761
 H         0.352612        -1.085452        -1.406811
 H         1.549285        -1.673155         1.297774
 H         2.422619        -2.297118        -0.263942
 H         4.108297        -1.355658         1.730753
 H         4.288383         1.851059        -0.356177
 H         1.777958         1.702908        -1.063316
 H         2.505774         0.455040        -2.155852
 H         3.587399         1.287730         2.003911
