19
Iteration:   913charge 0 multiplicity 1
 C        -0.051564        -0.204147        -0.337558
 C         1.469615        -0.112722        -0.150547
 C         2.338293        -1.416122         0.251075
 C         3.561112        -0.620938         0.880970
 O         4.559873        -0.088048        -0.028950
 C         3.610342         0.993854        -0.261019
 C         2.512975         0.608384        -1.272372
 C         2.905247         0.774854         1.141550
 O         1.565592         0.704578         1.043025
 H        -0.425210        -0.634560         0.567498
 H        -0.442620         0.765284        -0.516294
 H        -0.407040        -0.631216        -1.246767
 H         1.687651        -2.010242         0.974447
 H         2.605331        -2.050292        -0.514057
 H         4.156608        -1.308254         1.640419
 H         4.126104         1.915569        -0.354920
 H         1.943471         1.429557        -1.758100
 H         2.853467        -0.282017        -1.825703
 H         3.063379         1.441418         1.945587
