19
Iteration:  2925
 C        -0.037472        -0.220137        -0.513762
 C         1.445007        -0.060180        -0.164908
 C         2.330012        -1.368254         0.289011
 C         3.523584        -0.714636         0.965714
 O         4.490820        -0.220885        -0.056296
 C         3.691573         0.928831        -0.256068
 C         2.423260         0.607035        -1.105143
 C         2.964183         0.803791         1.187260
 O         1.597378         0.886057         0.981231
 H        -0.429947        -0.956534         0.265007
 H        -0.560198         0.693876        -0.342837
 H        -0.173686        -0.592851        -1.538440
 H         1.743847        -1.952445         1.014185
 H         2.580871        -2.086427        -0.496065
 H         4.003384        -1.333371         1.702099
 H         4.269686         1.826237        -0.589235
 H         2.109313         1.580288        -1.604428
 H         2.828112        -0.122905        -1.897472
 H         3.451307         1.363889         2.026774
