19
Iteration:   802charge 0 multiplicity 1
 C         0.032235        -0.343339        -0.549884
 C         1.546674        -0.071160        -0.129850
 C         2.314744        -1.319048         0.405512
 C         3.578443        -0.631066         0.955619
 O         4.380536        -0.226143        -0.225089
 C         3.660821         1.040718        -0.253080
 C         2.402814         0.678511        -1.101177
 C         3.028909         0.828458         1.166590
 O         1.550380         0.690138         1.065838
 H        -0.499068        -0.947121         0.219635
 H        -0.528547         0.545926        -0.711136
 H         0.063695        -0.802993        -1.532096
 H         1.685657        -1.507186         1.296035
 H         2.505748        -2.107562        -0.330379
 H         4.219177        -1.161846         1.760698
 H         4.429372         1.733888        -0.442980
 H         1.718639         1.555330        -1.337299
 H         2.728500         0.342587        -2.173116
 H         3.321016         1.499913         2.034714
