19
Iteration:  2318
 C         0.112487        -0.404594        -0.676487
 C         1.542250        -0.097928        -0.071750
 C         2.203142        -1.329147         0.482313
 C         3.540913        -0.709734         0.873290
 O         4.406475        -0.239979        -0.161875
 C         3.623470         1.019849        -0.323581
 C         2.366565         0.717152        -1.097717
 C         3.058844         0.797840         1.208198
 O         1.639539         0.889110         1.117838
 H        -0.575733        -0.929445         0.065275
 H        -0.517525         0.370642        -1.055256
 H         0.277569        -1.007680        -1.529686
 H         1.568314        -1.687082         1.289138
 H         2.119326        -2.131360        -0.264849
 H         4.146385        -1.203059         1.689869
 H         4.300865         1.788837        -0.565375
 H         1.803980         1.532645        -1.307584
 H         2.568500         0.223296        -2.102831
 H         3.519346         1.515158         1.921755
