19
Iteration:  4514
 C        -0.074793        -0.192917        -0.437303
 C         1.435489        -0.046390        -0.196719
 C         2.268610        -1.335206         0.154588
 C         3.529810        -0.773812         0.918358
 O         4.482969        -0.159795         0.117502
 C         3.672265         0.962468        -0.264307
 C         2.460117         0.695015        -1.204036
 C         3.029167         0.672497         1.157795
 O         1.642759         0.772934         1.002805
 H        -0.668863         0.099689         0.516602
 H        -0.425034         0.565774        -1.219517
 H        -0.191098        -1.281857        -0.549594
 H         1.628700        -1.849353         0.890249
 H         2.552503        -1.961930        -0.717706
 H         3.945395        -1.273539         1.853296
 H         4.254337         1.878745        -0.466534
 H         2.004138         1.779491        -1.597338
 H         2.893065         0.143158        -2.054996
 H         3.465956         1.083483         2.045663
