19
Iteration:  4335charge 0 multiplicity 1
 C         0.203297        -0.258917        -0.669687
 C         1.524116        -0.014131        -0.046221
 C         2.182706        -1.301626         0.323446
 C         3.539052        -0.728038         0.915356
 O         4.419644        -0.345132        -0.147867
 C         3.621195         0.976186        -0.283544
 C         2.372495         0.772286        -1.065203
 C         2.951816         0.760805         1.189852
 O         1.618889         0.826703         1.160204
 H        -0.467450        -0.838867        -0.058294
 H        -0.219514         0.653965        -1.018011
 H         0.234758        -0.885287        -1.608426
 H         1.671224        -1.820503         1.120768
 H         2.357821        -1.997048        -0.481090
 H         4.156233        -1.199775         1.669937
 H         4.289889         1.693314        -0.673976
 H         1.824637         1.670905        -1.536339
 H         2.732512         0.048253        -1.898753
 H         3.381144         1.267079         2.090479
