19
Iteration:   507charge 0 multiplicity 1
 C         0.040939        -0.363159        -0.537145
 C         1.446022        -0.018516        -0.084706
 C         2.313023        -1.301026         0.296744
 C         3.583918        -0.708006         0.995638
 O         4.496230        -0.239638        -0.109790
 C         3.633111         1.002479        -0.316156
 C         2.368809         0.666052        -1.080119
 C         3.007478         0.807662         1.139189
 O         1.578607         0.819067         1.059837
 H        -0.555859        -0.935583         0.239533
 H        -0.567143         0.561509        -0.829699
 H         0.061747        -0.944454        -1.499938
 H         1.547415        -1.948215         0.918847
 H         2.588693        -1.969716        -0.597904
 H         4.213236        -1.291684         1.788812
 H         4.197975         1.846333        -0.610388
 H         1.962868         1.603521        -1.326767
 H         2.523863         0.204374        -2.053361
 H         3.428600         1.355415         1.976707
