19
Iteration:  2778charge 0 multiplicity 1
 C        -0.003266        -0.232425        -0.551736
 C         1.488108        -0.038294        -0.132065
 C         2.266052        -1.314515         0.308282
 C         3.544158        -0.693870         0.997083
 O         4.520678        -0.216582        -0.042830
 C         3.603258         0.979408        -0.255547
 C         2.371308         0.622926        -1.191293
 C         3.029839         0.777336         1.114983
 O         1.629585         0.775068         1.064092
 H        -0.335038        -1.014548         0.045896
 H        -0.586339         0.713872        -0.425885
 H        -0.038575        -0.520079        -1.636421
 H         1.671958        -1.837834         1.133225
 H         2.467680        -2.017366        -0.521198
 H         4.052575        -1.233982         1.864088
 H         4.117331         1.927017        -0.422338
 H         1.904625         1.442785        -1.812684
 H         2.723643        -0.198892        -1.794372
 H         3.344511         1.373282         1.919579
