19
Iteration:  1550charge 0 multiplicity 1
 C         0.180233        -0.479020        -0.723266
 C         1.499681        -0.068895        -0.087786
 C         2.333242        -1.264664         0.485179
 C         3.553882        -0.649443         0.947953
 O         4.297466        -0.269928        -0.248293
 C         3.632122         0.959957        -0.331586
 C         2.330309         0.810243        -1.018317
 C         3.053656         0.815346         1.150890
 O         1.605652         0.820602         1.171959
 H        -0.466146        -1.073432         0.003509
 H        -0.492487         0.310139        -1.081675
 H         0.421700        -1.043584        -1.640434
 H         1.861967        -1.567672         1.357809
 H         2.370531        -2.205905        -0.229147
 H         4.266239        -1.277726         1.564473
 H         4.243141         1.753958        -0.509310
 H         1.930096         1.749603        -1.207828
 H         2.605082         0.452145        -2.000150
 H         3.125041         1.387158         2.052705
