19
Iteration:    53
 C        -0.102740        -0.310136        -0.399321
 C         1.449840        -0.106240        -0.136285
 C         2.327236        -1.292924         0.203215
 C         3.569595        -0.647161         0.973140
 O         4.578809        -0.215147        -0.016885
 C         3.633564         0.967409        -0.297931
 C         2.484160         0.642468        -1.227570
 C         2.979808         0.841077         1.149340
 O         1.563718         0.775740         1.075863
 H        -0.729034        -0.756355         0.395008
 H        -0.617079         0.702290        -0.481814
 H        -0.283147        -0.969801        -1.291877
 H         1.673850        -1.997468         0.898698
 H         2.610665        -1.649687        -0.759816
 H         3.937393        -1.314903         1.696027
 H         4.234812         1.812566        -0.527438
 H         2.021333         1.469034        -1.712474
 H         2.725005        -0.105820        -2.074909
 H         3.370805         1.483312         1.909110
