19
Iteration:   393
 C         0.141108        -0.506119        -0.694487
 C         1.520747        -0.049058        -0.131930
 C         2.265586        -1.333847         0.488438
 C         3.564281        -0.674581         0.920716
 O         4.274391        -0.301515        -0.283894
 C         3.660500         0.998228        -0.201378
 C         2.324861         0.901383        -0.987791
 C         3.125452         0.730663         1.189021
 O         1.609686         0.863090         1.066255
 H        -0.314386        -1.040531         0.138613
 H        -0.399673         0.383996        -0.929460
 H         0.265333        -1.151875        -1.542656
 H         1.680255        -1.671730         1.269061
 H         2.325055        -2.057511        -0.287918
 H         4.181439        -1.142166         1.579268
 H         4.365560         1.870044        -0.479282
 H         1.840560         1.892220        -1.250155
 H         2.760212         0.550290        -1.924191
 H         3.231753         1.356375         2.078764
