19
Iteration:  2986
 C         0.038337        -0.217160        -0.554801
 C         1.500493        -0.171905        -0.159090
 C         2.319846        -1.329428         0.409230
 C         3.524027        -0.640605         1.063299
 O         4.445007        -0.349682        -0.118299
 C         3.635321         0.959879        -0.223970
 C         2.373228         0.743501        -1.158439
 C         3.006262         0.763668         1.141853
 O         1.625482         0.812264         0.953271
 H        -0.670228        -0.644889         0.140238
 H        -0.348599         0.831388        -0.796368
 H        -0.136470        -0.757904        -1.484914
 H         1.710848        -1.744217         1.207156
 H         2.707745        -2.005827        -0.404329
 H         4.191381        -1.180960         1.794634
 H         4.281667         1.856596        -0.446868
 H         1.873538         1.708084        -1.225868
 H         2.615684         0.446869        -2.116088
 H         3.194619         1.559440         1.918010
