19
Iteration:   685
 C         0.148677        -0.442807        -0.784952
 C         1.510937        -0.007625        -0.046497
 C         2.302901        -1.298532         0.538066
 C         3.549154        -0.602516         0.916527
 O         4.349136        -0.316522        -0.229332
 C         3.635315         0.971611        -0.324780
 C         2.265545         0.818228        -1.012525
 C         3.071016         0.754998         1.138074
 O         1.651270         0.793414         1.173228
 H        -0.556997        -0.794901         0.036808
 H        -0.402041         0.455477        -1.206673
 H         0.308221        -1.098870        -1.682300
 H         1.681567        -1.884356         1.330875
 H         2.725341        -1.864788        -0.199775
 H         4.017543        -1.245378         1.742645
 H         4.151627         1.909590        -0.636462
 H         1.579598         1.531372        -1.344272
 H         2.509240         0.273315        -1.914044
 H         3.493393         1.542240         1.851930
