19
Iteration:  4884charge 0 multiplicity 1
 C         0.123639        -0.279893        -0.612075
 C         1.585885        -0.047576        -0.216167
 C         2.246552        -1.294822         0.479428
 C         3.453382        -0.623802         1.046350
 O         4.347823        -0.380795        -0.100549
 C         3.668437         0.965305        -0.311287
 C         2.411164         0.753436        -1.176992
 C         3.050600         0.769016         1.248431
 O         1.570283         0.812767         0.925952
 H        -0.542610         0.433325        -0.009207
 H        -0.012118         0.117754        -1.551945
 H        -0.276252        -1.281835        -0.447956
 H         1.634144        -1.556914         1.365107
 H         2.633797        -2.212505         0.021146
 H         4.014678        -1.259038         1.766691
 H         4.557297         1.510537        -0.389242
 H         1.868079         1.657479        -1.511875
 H         2.814398         0.134426        -1.911986
 H         3.453786         1.417885         2.126416
