19
Iteration:  3004
 C         0.188721        -0.296374        -0.725969
 C         1.515730         0.008541        -0.090937
 C         2.279189        -1.356347         0.467536
 C         3.538255        -0.696578         1.012494
 O         4.277054        -0.333979        -0.197104
 C         3.633178         0.959637        -0.318452
 C         2.388356         0.747005        -1.083460
 C         3.055421         0.855634         1.202993
 O         1.608230         0.818768         1.108445
 H        -0.552606        -0.649872        -0.008707
 H        -0.348254         0.540893        -1.267952
 H         0.220164        -1.236415        -1.371568
 H         1.599006        -1.884108         1.185780
 H         2.548817        -2.038139        -0.317506
 H         4.107086        -1.208779         1.811704
 H         4.266624         1.749883        -0.582193
 H         1.945693         1.725126        -1.391613
 H         2.600355         0.070773        -2.051305
 H         3.574004         1.293436         2.008709
