19
Iteration:  4298charge 0 multiplicity 1
 C         0.045762        -0.397504        -0.699134
 C         1.474700        -0.041448        -0.197137
 C         2.241880        -1.337998         0.413611
 C         3.523673        -0.730319         0.933661
 O         4.360956        -0.351307        -0.139073
 C         3.683057         1.004745        -0.223240
 C         2.375319         0.918766        -1.047847
 C         3.057147         0.750577         1.207386
 O         1.719320         0.824399         1.099174
 H        -0.662791        -0.284519         0.179315
 H        -0.162453         0.330707        -1.530230
 H         0.098108        -1.322469        -1.203999
 H         1.464486        -1.814074         1.077586
 H         2.299322        -2.077024        -0.448631
 H         3.973752        -1.276899         1.785791
 H         4.345377         1.916460        -0.557686
 H         1.854638         1.848873        -1.175950
 H         2.669148         0.574854        -2.046923
 H         3.337323         1.304351         2.078515
