19
Iteration:   951
 C         0.140094        -0.389080        -0.613115
 C         1.519869        -0.091691        -0.090663
 C         2.306218        -1.357275         0.413704
 C         3.565682        -0.718572         0.945592
 O         4.423251        -0.235976        -0.175536
 C         3.550223         0.963215        -0.262714
 C         2.291549         0.794619        -1.127061
 C         3.005110         0.782142         1.188741
 O         1.636946         0.857801         1.081221
 H        -0.528642        -1.085516        -0.019637
 H        -0.429659         0.602270        -0.650871
 H         0.273980        -0.996131        -1.548621
 H         1.819595        -1.913284         1.172980
 H         2.698192        -2.090647        -0.425638
 H         4.042626        -1.067948         1.791750
 H         4.224368         1.861543        -0.580912
 H         1.769410         1.749818        -1.284130
 H         2.459282         0.428948        -2.141372
 H         3.478068         1.536464         1.907421
