19
Iteration:  1194
 C        -0.095959        -0.218118        -0.387444
 C         1.367014        -0.199776        -0.213876
 C         2.352139        -1.353323         0.173321
 C         3.535783        -0.651042         0.972244
 O         4.616258        -0.073698         0.017264
 C         3.583459         1.048033        -0.279677
 C         2.410776         0.535401        -1.089766
 C         3.060349         0.762978         1.075122
 O         1.583825         0.759337         1.012341
 H        -0.473887        -0.751867         0.545744
 H        -0.458752         0.831402        -0.508577
 H        -0.346090        -0.884121        -1.272135
 H         1.719730        -2.054547         0.782308
 H         2.764555        -1.934162        -0.690429
 H         3.995732        -1.156219         1.745794
 H         4.137054         2.058510        -0.285758
 H         2.005369         1.378995        -1.663867
 H         2.756233        -0.188257        -1.857331
 H         3.455143         1.418320         1.895758
