19
Iteration:   791
 C        -0.005114        -0.281617        -0.508217
 C         1.482713        -0.128600        -0.136550
 C         2.341648        -1.317092         0.357879
 C         3.580414        -0.637580         0.980059
 O         4.430988        -0.188351        -0.074509
 C         3.600855         0.996513        -0.308772
 C         2.385583         0.707042        -1.203975
 C         3.023629         0.825323         1.124390
 O         1.608732         0.688161         1.070823
 H        -0.549727        -0.871288         0.268022
 H        -0.411348         0.708316        -0.516653
 H        -0.201309        -0.808338        -1.438622
 H         1.807156        -2.029475         1.034160
 H         2.702967        -2.019523        -0.415708
 H         4.175702        -1.305909         1.711637
 H         4.035645         1.935927        -0.527750
 H         1.918521         1.706193        -1.466094
 H         2.856345         0.072206        -2.072870
 H         3.429113         1.421765         1.989749
