19
Iteration:  3639charge 0 multiplicity 1
 C         0.019065        -0.241105        -0.531902
 C         1.499512        -0.066553        -0.170669
 C         2.262570        -1.231559         0.321782
 C         3.524854        -0.742604         0.941961
 O         4.538297        -0.197626        -0.041100
 C         3.675451         0.947416        -0.239762
 C         2.431013         0.627469        -1.174440
 C         2.982103         0.803959         1.190872
 O         1.546862         0.755139         1.028688
 H        -0.535417        -1.063456         0.018350
 H        -0.374960         0.700209        -0.230194
 H        -0.105814        -0.388845        -1.632896
 H         1.678599        -1.635557         1.156498
 H         2.277220        -2.079958        -0.370457
 H         3.997025        -1.434843         1.697316
 H         4.327759         1.730656        -0.559535
 H         2.060327         1.513325        -1.720122
 H         2.578453        -0.039984        -2.119996
 H         3.319243         1.390378         2.071849
