19
Iteration:  3145
 C         0.151987        -0.311322        -0.677458
 C         1.572223        -0.105160        -0.162833
 C         2.293212        -1.253762         0.476353
 C         3.476619        -0.643765         1.028753
 O         4.265424        -0.331759        -0.179857
 C         3.622159         0.976489        -0.272022
 C         2.429130         0.775035        -1.149444
 C         3.028979         0.776328         1.172441
 O         1.627748         0.787459         1.116251
 H        -0.379386        -1.058829        -0.130323
 H        -0.334637         0.700840        -0.655519
 H         0.201149        -0.802758        -1.708166
 H         1.580463        -1.692208         1.237368
 H         2.529151        -2.018005        -0.262072
 H         4.118231        -1.211848         1.721900
 H         4.360996         1.766874        -0.489535
 H         1.885314         1.677544        -1.365908
 H         2.657571         0.151725        -2.125516
 H         3.509239         1.402654         1.972375
