19
Iteration:  2206charge 0 multiplicity 1
 C         0.024093        -0.175601        -0.387426
 C         1.495802        -0.138396        -0.199393
 C         2.264877        -1.409395         0.319235
 C         3.517953        -0.650352         0.937944
 O         4.531571        -0.132067         0.012531
 C         3.592057         1.035287        -0.265310
 C         2.425548         0.582837        -1.222066
 C         3.006671         0.767735         1.099501
 O         1.591012         0.698266         0.990019
 H        -0.483457        -0.542367         0.527182
 H        -0.393224         0.856702        -0.385357
 H        -0.303347        -0.780603        -1.254074
 H         1.713765        -2.099329         0.901434
 H         2.750567        -1.826313        -0.672812
 H         4.017479        -0.917589         1.856425
 H         4.157544         1.980972        -0.587789
 H         1.857083         1.465242        -1.590037
 H         2.776972        -0.045288        -1.961312
 H         3.340132         1.474370         1.899305
