19
Iteration:  4762
 C        -0.016602        -0.223816        -0.625679
 C         1.503848         0.013340        -0.094193
 C         2.233776        -1.343676         0.331113
 C         3.465794        -0.700722         0.944865
 O         4.468794        -0.295897        -0.017153
 C         3.700581         0.974040        -0.294137
 C         2.488201         0.689037        -1.164774
 C         3.014785         0.722323         1.152963
 O         1.591191         0.854959         1.116171
 H        -0.032268        -0.023857        -1.702309
 H        -0.111740        -1.362059        -0.628853
 H        -0.819333         0.231568        -0.046063
 H         1.635699        -2.035830         0.992575
 H         2.473556        -1.976677        -0.537175
 H         4.122584        -1.119596         1.791816
 H         4.438133         1.745698        -0.519913
 H         2.061430         1.520647        -1.745637
 H         2.624814        -0.080694        -1.935204
 H         3.279019         1.368879         1.917657
