19
Iteration:  1212
 C        -0.060943        -0.255384        -0.430898
 C         1.514767        -0.105249        -0.153188
 C         2.395737        -1.387643         0.276855
 C         3.567508        -0.654129         0.929549
 O         4.510798        -0.134969        -0.028121
 C         3.620646         0.966412        -0.273786
 C         2.376309         0.621802        -1.208278
 C         2.941953         0.806274         1.202631
 O         1.586274         0.761247         1.019218
 H        -0.560407        -0.867328         0.315113
 H        -0.383246         0.756077        -0.446919
 H        -0.287221        -0.765296        -1.340746
 H         1.973176        -2.025649         0.989290
 H         2.726840        -1.891263        -0.721249
 H         4.114408        -1.198779         1.776092
 H         4.107879         1.780704        -0.683812
 H         1.881667         1.563737        -1.543732
 H         2.638474         0.085163        -2.163174
 H         3.281605         1.413478         2.014140
