19
Iteration:  2305charge 0 multiplicity 1
 C         0.127971        -0.447865        -0.754965
 C         1.443870        -0.073838        -0.110650
 C         2.230263        -1.295862         0.547582
 C         3.551634        -0.662087         0.941328
 O         4.310018        -0.294976        -0.254130
 C         3.674511         0.991164        -0.232768
 C         2.345617         0.758674        -1.010703
 C         3.096400         0.862938         1.132717
 O         1.678708         0.846057         1.083857
 H        -0.555899        -1.042880        -0.038973
 H        -0.336056         0.508634        -1.007732
 H         0.320010        -1.148337        -1.550029
 H         1.781896        -1.567576         1.474948
 H         2.531807        -2.206467        -0.142867
 H         4.072661        -1.394459         1.572461
 H         4.231738         1.860893        -0.649060
 H         1.817359         1.752386        -1.108658
 H         2.589851         0.274059        -1.958221
 H         3.397753         1.327575         2.143024
