19
Iteration:  2876
 C         0.109758        -0.386682        -0.763383
 C         1.486862        -0.066597        -0.057019
 C         2.266956        -1.272558         0.512966
 C         3.553242        -0.670205         0.978099
 O         4.259747        -0.348339        -0.286283
 C         3.688064         0.968190        -0.196354
 C         2.388221         0.778787        -1.122600
 C         3.049774         0.776024         1.249142
 O         1.643050         0.856316         1.086769
 H        -0.686853        -0.579837        -0.100976
 H        -0.120204         0.521128        -1.414439
 H         0.323221        -1.200250        -1.496589
 H         1.644596        -1.741211         1.316582
 H         2.488211        -2.063778        -0.245536
 H         4.281712        -1.136046         1.701218
 H         4.439343         1.763808        -0.360691
 H         1.874151         1.709555        -1.149648
 H         2.629803         0.455677        -2.092882
 H         3.475894         1.392441         1.989662
