19
Iteration:  2251
 C        -0.033433        -0.281985        -0.490660
 C         1.433035        -0.102955        -0.123557
 C         2.254463        -1.361171         0.308703
 C         3.573218        -0.609062         0.998726
 O         4.531495        -0.190659        -0.091946
 C         3.620755         0.988037        -0.263404
 C         2.439163         0.659598        -1.148509
 C         3.018415         0.751607         1.129924
 O         1.631110         0.809200         0.975076
 H        -0.523113        -0.725491         0.424707
 H        -0.706575         0.541468        -0.638462
 H        -0.140232        -1.032942        -1.243079
 H         1.758507        -1.933855         1.049311
 H         2.560671        -2.048163        -0.563281
 H         4.024641        -1.182047         1.842826
 H         4.068604         1.974164        -0.415792
 H         1.901146         1.488009        -1.508755
 H         2.734439        -0.008415        -1.937715
 H         3.374986         1.281463         2.084722
