19
Iteration:  2041charge 0 multiplicity 1
 C         0.038066        -0.339192        -0.499888
 C         1.457856        -0.141367        -0.149718
 C         2.231809        -1.343438         0.299924
 C         3.532887        -0.636727         0.953344
 O         4.486044        -0.178643        -0.089780
 C         3.610075         1.003453        -0.241674
 C         2.349292         0.658179        -1.153179
 C         3.067722         0.798199         1.144296
 O         1.651553         0.777288         1.056856
 H        -0.536831        -0.792229         0.290364
 H        -0.281184         0.724377        -0.669721
 H         0.181643        -0.887094        -1.468220
 H         1.693062        -1.809503         1.101253
 H         2.453815        -2.041713        -0.549172
 H         4.055037        -1.127232         1.781950
 H         4.019334         2.049245        -0.580776
 H         1.900242         1.594634        -1.492648
 H         2.789747         0.130813        -1.943636
 H         3.388571         1.364492         1.985140
