19
Iteration:   514charge 0 multiplicity 1
 C         0.027183        -0.382304        -0.598449
 C         1.480266        -0.048416        -0.074944
 C         2.341415        -1.286743         0.374078
 C         3.536429        -0.717777         0.958732
 O         4.482129        -0.308989        -0.164358
 C         3.622130         1.009837        -0.264275
 C         2.343317         0.727003        -1.090394
 C         2.978682         0.797200         1.151538
 O         1.615054         0.848763         1.082246
 H        -0.563355        -0.993518         0.025598
 H        -0.493978         0.510209        -0.927729
 H         0.268672        -1.025947        -1.446993
 H         1.928597        -1.862373         1.113595
 H         2.647184        -1.904654        -0.503348
 H         4.076515        -1.165207         1.728345
 H         4.283094         1.847618        -0.567503
 H         1.740809         1.716231        -1.226146
 H         2.493546         0.273531        -2.064442
 H         3.426764         1.556407         1.874423
