19
Iteration:  1598
 C         0.016027        -0.353772        -0.482126
 C         1.475977        -0.080384        -0.136212
 C         2.307683        -1.293192         0.313151
 C         3.623053        -0.605565         0.943666
 O         4.460855        -0.223107        -0.130836
 C         3.653540         1.025793        -0.220764
 C         2.385840         0.672746        -1.144119
 C         3.012673         0.806014         1.176521
 O         1.536697         0.727079         1.025040
 H        -0.506341        -0.693190         0.373159
 H        -0.460316         0.595035        -0.794481
 H        -0.034526        -0.980487        -1.377184
 H         1.878373        -1.909089         1.168103
 H         2.420566        -2.007530        -0.442976
 H         4.260725        -1.265840         1.559061
 H         4.309887         1.888520        -0.576735
 H         1.998288         1.587209        -1.544466
 H         2.562523         0.006581        -1.976679
 H         3.227903         1.431441         2.067473
