19
Iteration:  4569
 C         0.097905        -0.214287        -0.696460
 C         1.444342        -0.019910        -0.060543
 C         2.211397        -1.395305         0.395708
 C         3.497481        -0.812990         0.968306
 O         4.473702        -0.258529        -0.125823
 C         3.616261         0.973158        -0.285667
 C         2.357948         0.791348        -1.157275
 C         3.052853         0.771372         1.181718
 O         1.632172         0.786844         1.116402
 H        -0.448420        -0.944804        -0.047516
 H        -0.270181         0.764555        -1.051115
 H         0.334100        -0.835497        -1.588316
 H         1.665509        -1.890471         1.211228
 H         2.615964        -2.171958        -0.267185
 H         4.108532        -1.306222         1.728286
 H         4.199414         1.907982        -0.315839
 H         1.963573         1.942384        -1.343312
 H         2.639745         0.323314        -2.107833
 H         3.472164         1.409431         1.950272
