19
Iteration:  2732charge 0 multiplicity 1
 C         0.227385        -0.379057        -0.629441
 C         1.563053        -0.003744        -0.133749
 C         2.274319        -1.379088         0.495767
 C         3.500010        -0.669490         0.995546
 O         4.235101        -0.316782        -0.219934
 C         3.600006         0.925470        -0.206496
 C         2.310057         0.897384        -1.158300
 C         3.090439         0.761168         1.185143
 O         1.683957         0.839806         1.018740
 H        -0.365776        -1.015793         0.086068
 H        -0.224026         0.468672        -1.117998
 H         0.482762        -0.980913        -1.584944
 H         1.439881        -1.685737         1.245441
 H         2.597501        -2.216501        -0.114535
 H         4.035859        -1.173497         1.808884
 H         4.378924         1.622859        -0.294985
 H         1.724589         1.760928        -1.131955
 H         2.393610         0.378491        -2.178687
 H         3.361612         1.418083         2.080292
