19
Iteration:  4829
 C         0.076120        -0.242747        -0.597643
 C         1.491262        -0.033882        -0.165167
 C         2.253752        -1.217521         0.320962
 C         3.536086        -0.632604         1.006877
 O         4.437996        -0.343065        -0.039617
 C         3.640688         0.926458        -0.296524
 C         2.431192         0.591436        -1.127241
 C         2.966128         0.775119         1.168391
 O         1.631602         0.851198         1.050284
 H        -0.517428         0.706137        -0.740412
 H        -0.026180        -0.690100        -1.563550
 H        -0.525438        -0.884160         0.059539
 H         1.653901        -1.813707         1.030804
 H         2.536400        -1.980077        -0.408693
 H         3.918353        -1.261595         1.850372
 H         4.321325         1.746514        -0.517895
 H         2.001347         1.462058        -1.561173
 H         2.712005         0.026166        -1.939736
 H         3.387268         1.339477         2.071108
