19
Iteration:   695charge 0 multiplicity 1
 C         0.153532        -0.410640        -0.734759
 C         1.465188        -0.094237        -0.083410
 C         2.304957        -1.352650         0.507806
 C         3.548412        -0.651276         0.965397
 O         4.320758        -0.302583        -0.273384
 C         3.608664         1.020141        -0.277061
 C         2.288553         0.793771        -1.036342
 C         3.115107         0.852938         1.163503
 O         1.619510         0.849410         1.119156
 H        -0.586565        -0.923790        -0.008602
 H        -0.295829         0.478701        -1.241934
 H         0.386610        -1.249160        -1.452243
 H         1.814927        -2.077197         1.251988
 H         2.644515        -2.008509        -0.253958
 H         4.229962        -1.135216         1.808332
 H         4.380512         1.717310        -0.541325
 H         1.892787         1.798418        -1.080341
 H         2.400900         0.242179        -2.005004
 H         3.583926         1.291638         2.091546
