19
Iteration:  3260
 C        -0.018676        -0.206181        -0.494923
 C         1.561552        -0.091757        -0.168426
 C         2.333782        -1.326839         0.339715
 C         3.572329        -0.644214         0.977954
 O         4.468865        -0.234680         0.040718
 C         3.640712         0.945138        -0.329212
 C         2.409078         0.685467        -1.231324
 C         2.969159         0.758069         1.146470
 O         1.564554         0.720214         1.007449
 H        -0.597015        -0.757266         0.328907
 H        -0.359777         0.821080        -0.460165
 H        -0.215040        -0.571510        -1.526143
 H         1.767933        -1.942235         1.020743
 H         2.566945        -2.053532        -0.454878
 H         3.940382        -1.206594         1.836478
 H         4.209246         1.873497        -0.565923
 H         2.007824         1.794277        -1.439249
 H         2.535183         0.198382        -2.159141
 H         3.313777         1.408337         1.931465
