19
Iteration:   692charge 0 multiplicity 1
 C         0.150637        -0.422840        -0.761847
 C         1.478679        -0.059637        -0.083727
 C         2.295949        -1.340721         0.548569
 C         3.546001        -0.636545         0.941000
 O         4.329421        -0.309869        -0.264928
 C         3.621940         1.011733        -0.289661
 C         2.270423         0.796952        -1.014110
 C         3.108504         0.826287         1.160027
 O         1.626249         0.835356         1.132822
 H        -0.554611        -0.868618         0.006077
 H        -0.307911         0.440446        -1.214477
 H         0.354066        -1.198743        -1.512295
 H         1.836475        -2.038569         1.221534
 H         2.801166        -1.982892        -0.303522
 H         4.127375        -1.165775         1.801295
 H         4.326146         1.752577        -0.550634
 H         1.754251         1.843679        -1.151848
 H         2.435533         0.176602        -1.990157
 H         3.581110         1.309640         1.969532
