19
Iteration:   885
 C         0.016025        -0.231034        -0.399367
 C         1.511834        -0.123428        -0.191159
 C         2.343973        -1.408951         0.291603
 C         3.546340        -0.659915         0.931613
 O         4.515288        -0.110307        -0.038536
 C         3.555717         0.986372        -0.244526
 C         2.354433         0.652729        -1.154048
 C         2.980955         0.777939         1.174983
 O         1.649516         0.738443         0.947627
 H        -0.448457        -0.544412         0.567143
 H        -0.369676         0.828756        -0.666511
 H        -0.346365        -0.944140        -1.209366
 H         1.680920        -1.957033         0.914674
 H         2.648301        -2.143538        -0.562497
 H         4.062975        -1.267622         1.616132
 H         4.214011         1.900015        -0.665198
 H         1.729480         1.502826        -1.425644
 H         2.714285         0.026400        -1.946345
 H         3.089052         1.400685         2.085323
