19
Iteration:  4476charge 0 multiplicity 1
 C         0.078266        -0.237249        -0.669060
 C         1.487429        -0.001756        -0.082301
 C         2.294958        -1.364017         0.356306
 C         3.538737        -0.705480         0.959751
 O         4.352668        -0.297230        -0.134725
 C         3.645000         0.995506        -0.248992
 C         2.459659         0.778968        -1.081709
 C         3.044446         0.712902         1.177783
 O         1.576099         0.787653         1.084013
 H        -0.648790        -0.096852         0.099689
 H        -0.047704         0.424961        -1.512017
 H        -0.180164        -1.226760        -1.056290
 H         1.716064        -1.948618         1.099542
 H         2.547672        -2.013450        -0.481300
 H         4.068076        -1.330518         1.687841
 H         4.369330         1.733994        -0.574753
 H         2.088943         1.722264        -1.306550
 H         2.677491         0.221476        -2.019552
 H         3.279774         1.295000         2.101126
