19
Iteration:  4109charge 0 multiplicity 1
 C         0.057151        -0.036862        -0.380673
 C         1.579726        -0.130646        -0.228646
 C         2.355133        -1.379094         0.234579
 C         3.516108        -0.762227         0.988195
 O         4.457362        -0.146093        -0.028385
 C         3.596069         0.998385        -0.202972
 C         2.494974         0.562983        -1.270995
 C         2.910599         0.718273         1.171853
 O         1.539247         0.747418         1.009788
 H        -0.380046        -0.013120         0.539127
 H        -0.205476         0.904364        -0.860678
 H        -0.361840        -0.865116        -0.968563
 H         1.696799        -1.963653         0.934977
 H         2.457854        -1.997238        -0.663770
 H         4.180200        -1.268497         1.699274
 H         4.070942         2.002148        -0.289347
 H         1.875585         1.361889        -1.659207
 H         2.855236         0.177423        -2.167111
 H         3.066132         1.162219         2.160104
