19
Iteration:  3511charge 0 multiplicity 1
 C        -0.105296        -0.184780        -0.480607
 C         1.460917        -0.106602        -0.262772
 C         2.312510        -1.358925         0.266560
 C         3.522575        -0.621247         1.016847
 O         4.471286        -0.211634         0.028905
 C         3.645384         0.957476        -0.285840
 C         2.446496         0.610245        -1.203304
 C         3.032080         0.822105         1.186370
 O         1.638994         0.721073         1.015924
 H        -0.368172        -0.564101         0.496944
 H        -0.330613         0.879660        -0.510224
 H        -0.367597        -0.749789        -1.433215
 H         1.724738        -2.099174         0.901207
 H         2.853570        -1.773284        -0.607847
 H         4.009072        -1.071518         1.856839
 H         4.334401         1.704015        -0.737091
 H         2.019089         1.588815        -1.571162
 H         2.741840         0.003720        -1.993501
 H         3.159482         1.283452         2.198886
