19
Iteration:  4817charge 0 multiplicity 1
 C        -0.002028        -0.170687        -0.538306
 C         1.501306        -0.062674        -0.159310
 C         2.255999        -1.370365         0.363444
 C         3.472332        -0.693752         1.007291
 O         4.466809        -0.259856        -0.042934
 C         3.673902         0.903345        -0.238813
 C         2.515164         0.655642        -1.226171
 C         3.045831         0.833596         1.163829
 O         1.526529         0.780412         1.004166
 H        -0.313220         0.862121        -0.755186
 H        -0.050437        -0.865249        -1.370876
 H        -0.516738        -0.508154         0.362761
 H         1.594339        -1.897970         1.089306
 H         2.628527        -1.932903        -0.494885
 H         4.053129        -1.279917         1.796193
 H         4.230368         1.763224        -0.584558
 H         2.093874         1.606108        -1.613521
 H         2.806515        -0.082002        -1.940539
 H         3.344021         1.636138         1.833881
