19
Iteration:  2993
 C         0.051546        -0.269765        -0.620352
 C         1.515185        -0.083995        -0.123150
 C         2.338095        -1.319725         0.453673
 C         3.507696        -0.661047         1.073083
 O         4.365304        -0.307584        -0.190363
 C         3.633800         0.895752        -0.236670
 C         2.371883         0.784135        -1.133300
 C         3.068868         0.758108         1.166345
 O         1.610491         0.819471         0.995276
 H        -0.679134        -0.566705         0.128771
 H        -0.144090         0.754330        -1.020315
 H         0.203210        -0.877897        -1.570679
 H         1.739170        -1.915252         1.184878
 H         2.745251        -1.999157        -0.266151
 H         4.022516        -1.151340         1.906955
 H         4.287364         1.671688        -0.485228
 H         1.793101         1.718152        -1.306732
 H         2.637909         0.255165        -2.180392
 H         3.250805         1.450414         1.938232
