19
Iteration:  1432
 C         0.116706        -0.433452        -0.656952
 C         1.468196        -0.017674        -0.048485
 C         2.310824        -1.290242         0.434289
 C         3.579127        -0.671438         0.942005
 O         4.366647        -0.250163        -0.238808
 C         3.602311         1.018990        -0.231035
 C         2.367662         0.727354        -1.075113
 C         3.026165         0.817073         1.191055
 O         1.639225         0.795470         1.061811
 H        -0.567765        -0.987039         0.033900
 H        -0.510848         0.338497        -1.094493
 H         0.286000        -1.139511        -1.480133
 H         1.763611        -1.584682         1.314376
 H         2.408961        -2.208968        -0.292072
 H         4.253078        -1.286318         1.698093
 H         4.133154         1.886970        -0.540067
 H         1.820256         1.652044        -1.350801
 H         2.584877         0.313417        -2.085156
 H         3.398997         1.262685         2.122902
