19
Iteration:  2752charge 0 multiplicity 1
 C         0.060945        -0.402534        -0.714742
 C         1.520274        -0.096247        -0.084620
 C         2.169323        -1.256253         0.489092
 C         3.551572        -0.719976         0.902082
 O         4.416810        -0.311434        -0.190042
 C         3.667182         1.007705        -0.342255
 C         2.459320         0.784462        -1.022787
 C         3.054250         0.798222         1.180461
 O         1.575794         0.864289         1.108102
 H        -0.379461        -1.267239        -0.069137
 H        -0.498666         0.503302        -0.819365
 H         0.303147        -0.856618        -1.706125
 H         1.638306        -1.502423         1.434310
 H         2.268576        -2.096291        -0.180630
 H         4.086125        -1.378540         1.550417
 H         4.261233         1.850012        -0.667273
 H         1.922846         1.658912        -1.099912
 H         2.698375         0.315366        -2.024835
 H         3.338956         1.320628         2.170156
