19
Iteration:   325charge 0 multiplicity 1
 C        -0.062534        -0.156552        -0.424370
 C         1.380715        -0.196533        -0.097351
 C         2.366424        -1.358355         0.178720
 C         3.617053        -0.724146         0.848433
 O         4.576963        -0.056991         0.097016
 C         3.587149         0.952515        -0.267975
 C         2.396252         0.565814        -1.179087
 C         2.937112         0.774988         1.082760
 O         1.598532         0.782998         1.060887
 H        -0.709753        -0.485090         0.420170
 H        -0.136366         0.914209        -0.492954
 H        -0.358755        -0.604788        -1.361234
 H         2.004827        -2.177779         0.832572
 H         2.655459        -1.807782        -0.695973
 H         4.111973        -1.328734         1.683148
 H         4.145338         1.920658        -0.665760
 H         1.880487         1.468822        -1.683884
 H         2.771165        -0.154029        -2.056726
 H         3.478430         1.123286         1.972037
