19
Iteration:  3962charge 0 multiplicity 1
 C        -0.002577        -0.108877        -0.425819
 C         1.439160        -0.088093        -0.063492
 C         2.361377        -1.331797         0.120231
 C         3.496377        -0.581297         0.980573
 O         4.552414        -0.224404         0.049760
 C         3.689008         0.856788        -0.273845
 C         2.473242         0.579849        -1.203271
 C         2.931816         0.778594         1.115024
 O         1.522628         0.752462         1.020476
 H        -0.599825        -0.886539         0.242003
 H        -0.334799         1.021010        -0.325343
 H        -0.202896        -0.491609        -1.427422
 H         1.862067        -2.119729         0.757449
 H         2.662276        -1.705607        -0.884491
 H         3.745223        -1.225191         1.841939
 H         4.247740         1.810484        -0.334085
 H         2.020615         1.468036        -1.641211
 H         2.647732        -0.147727        -2.094461
 H         3.408348         1.339297         1.918410
