19
Iteration:  1367
 C        -0.039930        -0.354212        -0.537180
 C         1.477543        -0.106121        -0.133957
 C         2.317129        -1.300433         0.314981
 C         3.569389        -0.699521         0.956423
 O         4.519478        -0.178672        -0.118693
 C         3.583802         1.022318        -0.264562
 C         2.401384         0.645755        -1.178159
 C         3.032539         0.814272         1.163713
 O         1.598467         0.794966         1.093879
 H        -0.412931        -0.783845         0.382198
 H        -0.527058         0.590509        -0.557195
 H        -0.019684        -0.892608        -1.457619
 H         1.852586        -1.850050         1.089082
 H         2.484883        -1.971958        -0.577310
 H         3.901189        -1.288082         1.905037
 H         4.102993         1.881628        -0.612434
 H         2.005125         1.629951        -1.550478
 H         2.671870        -0.035233        -2.027550
 H         3.271148         1.371819         2.111554
