19
Iteration:  1901charge 0 multiplicity 1
 C        -0.012488        -0.287240        -0.437507
 C         1.482903        -0.073261        -0.158045
 C         2.318108        -1.351770         0.271911
 C         3.538971        -0.631098         0.983704
 O         4.530894        -0.156964        -0.050969
 C         3.640895         0.996167        -0.303461
 C         2.414252         0.621736        -1.160086
 C         2.990107         0.819404         1.157161
 O         1.567599         0.713068         1.014375
 H        -0.459914        -0.719842         0.447561
 H        -0.529633         0.670931        -0.661523
 H        -0.147106        -0.930894        -1.330911
 H         1.663004        -1.774145         0.998516
 H         2.617160        -2.086173        -0.639306
 H         4.049772        -1.227573         1.773330
 H         4.194333         1.871429        -0.644925
 H         1.902120         1.604369        -1.522891
 H         2.726608        -0.006728        -1.999719
 H         3.254470         1.349682         2.085842
