19
Iteration:  1781
 C        -0.124674        -0.190976        -0.374546
 C         1.398503        -0.124806        -0.203245
 C         2.286549        -1.341101         0.187277
 C         3.584198        -0.608669         0.903016
 O         4.621566        -0.094193         0.056287
 C         3.595512         0.995504        -0.238780
 C         2.443300         0.509649        -1.219658
 C         2.969337         0.794462         1.097582
 O         1.614713         0.719380         1.036348
 H        -0.256525        -0.610570         0.612571
 H        -0.762912         0.694696        -0.582429
 H        -0.483900        -0.924146        -1.123784
 H         1.919540        -2.026700         0.847047
 H         2.898687        -1.876367        -0.647398
 H         4.022849        -1.121545         1.811430
 H         4.081781         1.796800        -0.583004
 H         2.071856         1.474766        -1.705623
 H         2.922460        -0.219449        -1.875938
 H         3.291642         1.180424         2.109224
