19
Iteration:  2934
 C        -0.078099        -0.212621        -0.485929
 C         1.455602         0.007936        -0.178499
 C         2.307441        -1.338305         0.224122
 C         3.538526        -0.719048         0.917248
 O         4.529819        -0.234951         0.030967
 C         3.577484         0.976140        -0.200908
 C         2.470576         0.520905        -1.173312
 C         3.070128         0.766914         1.192281
 O         1.574450         0.898499         0.999164
 H        -0.465684        -1.013466         0.215409
 H        -0.711340         0.622039        -0.249077
 H        -0.451742        -0.622923        -1.372991
 H         1.837353        -2.005663         0.949742
 H         2.621745        -1.951054        -0.702301
 H         4.097083        -1.272280         1.690735
 H         4.213712         1.750732        -0.780027
 H         2.112525         1.341058        -1.873848
 H         2.953390        -0.206580        -1.781720
 H         3.342554         1.500163         2.050054
