19
Iteration:  2885
 C         0.136005        -0.308100        -0.747016
 C         1.575840        -0.071460        -0.214383
 C         2.303190        -1.329087         0.522413
 C         3.541638        -0.673319         1.035589
 O         4.251170        -0.332913        -0.232381
 C         3.666351         0.919717        -0.264182
 C         2.357436         0.863837        -1.079729
 C         3.055776         0.814785         1.185833
 O         1.654820         0.794135         1.128605
 H        -0.665805        -0.688014        -0.129552
 H        -0.390910         0.552726        -1.222178
 H         0.163915        -1.157463        -1.533990
 H         1.618717        -1.579192         1.381899
 H         2.518393        -2.256132         0.052979
 H         4.210400        -1.189859         1.746188
 H         4.358509         1.671418        -0.496712
 H         1.811785         1.751615        -1.221317
 H         2.363253         0.261256        -2.034103
 H         3.198443         1.431827         2.018117
