19
Iteration:  2755
 C         0.031375        -0.405474        -0.691403
 C         1.481272        -0.076688        -0.086281
 C         2.184739        -1.250703         0.484770
 C         3.550554        -0.683607         0.872051
 O         4.442476        -0.290206        -0.187234
 C         3.689739         0.991912        -0.330047
 C         2.485465         0.745468        -1.048424
 C         3.057110         0.796771         1.199971
 O         1.564571         0.849337         1.123047
 H        -0.407012        -1.206049        -0.141376
 H        -0.568173         0.499132        -0.862664
 H         0.260859        -0.757924        -1.759358
 H         1.584697        -1.549743         1.429264
 H         2.314980        -2.113548        -0.152835
 H         4.041006        -1.416395         1.570102
 H         4.319967         1.777257        -0.680259
 H         1.926324         1.676804        -1.135533
 H         2.673321         0.236289        -2.023558
 H         3.295333         1.274267         2.140625
