19
Iteration:  2902
 C         0.178625        -0.250239        -0.634530
 C         1.536555        -0.096804        -0.131737
 C         2.226082        -1.337323         0.491007
 C         3.507784        -0.646310         0.999807
 O         4.384077        -0.354680        -0.101492
 C         3.602091         1.012821        -0.315403
 C         2.372433         0.794819        -1.167071
 C         3.045592         0.803586         1.136740
 O         1.598783         0.694943         1.032365
 H        -0.440019        -0.763372         0.208512
 H        -0.251367         0.730497        -0.705084
 H         0.128542        -0.771358        -1.552662
 H         1.563112        -1.736581         1.269003
 H         2.422564        -2.212010        -0.195553
 H         4.062497        -1.096209         1.827841
 H         4.334832         1.818417        -0.685526
 H         1.862079         1.836051        -1.107538
 H         2.707780         0.621925        -2.208152
 H         3.567379         1.526122         1.872020
