19
Iteration:  1039charge 0 multiplicity 1
 C        -0.075049        -0.229736        -0.421973
 C         1.450335        -0.145481        -0.246314
 C         2.373892        -1.432273         0.233954
 C         3.581722        -0.638829         0.960745
 O         4.566588        -0.119974         0.002329
 C         3.603568         1.023222        -0.311680
 C         2.407236         0.604071        -1.199355
 C         2.995104         0.785766         1.147961
 O         1.544444         0.725767         1.122866
 H        -0.473047        -0.424583         0.641071
 H        -0.437290         0.819072        -0.482102
 H        -0.493816        -0.807113        -1.263787
 H         1.857527        -2.030318         0.870687
 H         2.847947        -1.842784        -0.762892
 H         3.972060        -1.169330         1.763198
 H         4.314586         1.825053        -0.516199
 H         1.931376         1.471388        -1.672414
 H         2.564687         0.027176        -2.133034
 H         3.415987         1.609428         1.761393
