19
Iteration:     8
 C         0.108225        -0.299493        -0.428144
 C         1.471484        -0.126215        -0.158690
 C         2.284416        -1.356634         0.305691
 C         3.529613        -0.730736         0.946603
 O         4.450125        -0.192775        -0.060038
 C         3.603201         1.007891        -0.267649
 C         2.419308         0.687909        -1.195333
 C         3.006378         0.803615         1.163926
 O         1.581329         0.782449         1.000087
 H        -0.485364        -0.674898         0.420612
 H        -0.257189         0.779897        -0.506262
 H        -0.041717        -0.913977        -1.357719
 H         1.677658        -1.842533         1.199538
 H         2.549945        -2.006914        -0.518145
 H         4.214119        -1.049202         1.718653
 H         4.100263         1.887087        -0.532089
 H         1.846318         1.560753        -1.483522
 H         2.863225         0.286810        -2.182582
 H         3.273319         1.473322         1.966601
