19
Iteration:  4559charge 0 multiplicity 1
 C         0.055116        -0.220298        -0.616517
 C         1.499246        -0.035735        -0.145813
 C         2.287687        -1.407273         0.358093
 C         3.514931        -0.704641         0.951369
 O         4.404617        -0.244211        -0.112242
 C         3.657640         0.961335        -0.204416
 C         2.431644         0.753088        -1.141254
 C         3.026248         0.742896         1.191859
 O         1.638645         0.771743         1.064007
 H        -0.782019        -0.468572         0.124349
 H        -0.350984         0.738586        -0.958477
 H         0.073518        -0.951659        -1.439097
 H         1.605920        -1.850607         1.087204
 H         2.490342        -2.095692        -0.472157
 H         3.924667        -1.345337         1.696578
 H         4.293040         1.840313        -0.428760
 H         1.832686         1.780533        -1.317906
 H         2.533557         0.246949        -2.113366
 H         3.337964         1.364492         2.039997
