19
Iteration:  1842charge 0 multiplicity 1
 C         0.152639        -0.458162        -0.688395
 C         1.498972        -0.099045        -0.074058
 C         2.326694        -1.341980         0.570787
 C         3.570039        -0.614757         0.986431
 O         4.257780        -0.287683        -0.254850
 C         3.656728         0.957421        -0.261656
 C         2.393506         0.916540        -1.134206
 C         3.048090         0.849089         1.098496
 O         1.595198         0.756747         1.119883
 H        -0.621381        -0.992721        -0.065490
 H        -0.288033         0.508418        -0.943912
 H         0.347716        -1.072548        -1.571287
 H         1.570691        -1.736877         1.380946
 H         2.506358        -2.132375        -0.201072
 H         4.161657        -1.250101         1.637665
 H         4.553466         1.769969        -0.464760
 H         1.780154         1.800700        -1.281099
 H         2.607416         0.480697        -2.133473
 H         3.285844         1.385120         1.997354
