19
Iteration:  4434charge 0 multiplicity 1
 C         0.147851        -0.273065        -0.642655
 C         1.517627        -0.046571        -0.111511
 C         2.235833        -1.313702         0.492575
 C         3.511377        -0.748538         0.880721
 O         4.362238        -0.319675        -0.179621
 C         3.712925         0.971616        -0.265409
 C         2.473456         0.845282        -1.068504
 C         2.977530         0.761326         1.214654
 O         1.571683         0.769927         1.021812
 H        -0.438163        -0.812128         0.088513
 H        -0.449518         0.629865        -0.897464
 H         0.105332        -0.847438        -1.601294
 H         1.614362        -1.717258         1.306573
 H         2.335467        -2.108692        -0.241191
 H         4.050177        -1.255748         1.720487
 H         4.280822         1.867817        -0.394942
 H         1.878279         1.828174        -1.292691
 H         2.640723         0.346232        -2.093269
 H         3.436505         1.280117         2.093292
