19
Iteration:  1324
 C        -0.035802        -0.189002        -0.347215
 C         1.522093        -0.138856        -0.204645
 C         2.415767        -1.391445         0.235645
 C         3.566825        -0.648872         0.964165
 O         4.557581        -0.149328        -0.045885
 C         3.572456         1.002032        -0.248842
 C         2.420346         0.603859        -1.203755
 C         2.901590         0.760782         1.192508
 O         1.552124         0.751462         0.960097
 H        -0.516593        -0.428401         0.601572
 H        -0.542902         0.742822        -0.533896
 H        -0.415940        -0.813552        -1.180995
 H         1.820788        -1.991325         0.924609
 H         2.692052        -2.090023        -0.596057
 H         4.220478        -1.110313         1.652517
 H         4.148675         1.918930        -0.434653
 H         1.656574         1.400798        -1.397547
 H         2.829667        -0.011905        -2.049478
 H         3.312893         1.540624         1.893452
