19
Iteration:  1243charge 0 multiplicity 1
 C         0.127253        -0.425905        -0.625150
 C         1.496579        -0.108586        -0.231288
 C         2.306242        -1.354634         0.464885
 C         3.478587        -0.654331         0.942614
 O         4.374603        -0.266157        -0.233360
 C         3.584815         1.031155        -0.221541
 C         2.364656         0.773699        -1.085642
 C         3.055334         0.869484         1.207566
 O         1.648880         0.767486         1.118197
 H        -0.300217        -1.101265         0.095891
 H        -0.385232         0.531278        -0.719750
 H         0.187641        -0.922131        -1.579704
 H         1.695461        -1.689344         1.285651
 H         2.393853        -2.117658        -0.286822
 H         4.239143        -0.918690         1.742751
 H         4.192780         1.815205        -0.546110
 H         1.829174         1.703592        -1.303468
 H         2.645740         0.385318        -2.054373
 H         3.477892         1.493962         1.954059
