19
Iteration:    57
 C        -0.030042        -0.308482        -0.450134
 C         1.415986        -0.126482        -0.120653
 C         2.298077        -1.311168         0.241085
 C         3.547812        -0.643618         0.959783
 O         4.550610        -0.206902        -0.016784
 C         3.632178         0.949087        -0.337140
 C         2.473181         0.654091        -1.216250
 C         2.971839         0.819735         1.143158
 O         1.595497         0.809266         1.112437
 H        -0.643488        -0.787740         0.341045
 H        -0.505848         0.630200        -0.592536
 H        -0.150376        -0.966754        -1.289403
 H         1.763849        -1.994623         0.840044
 H         2.631169        -1.750595        -0.757870
 H         4.070252        -1.341164         1.668999
 H         4.199640         1.876013        -0.398693
 H         1.930486         1.534590        -1.680992
 H         2.549195        -0.011275        -2.015512
 H         3.429371         1.552297         1.886386
