19
Iteration:    19charge 0 multiplicity 1
 C         0.041676        -0.243836        -0.260812
 C         1.602310        -0.172631        -0.208699
 C         2.282557        -1.420812         0.268014
 C         3.530458        -0.735828         0.948414
 O         4.514185        -0.134819         0.006578
 C         3.568433         1.030028        -0.241954
 C         2.458148         0.685865        -1.277625
 C         2.934556         0.782290         1.128082
 O         1.555952         0.805230         0.912746
 H        -0.292626        -0.726721         0.665108
 H        -0.280506         0.840274        -0.319844
 H        -0.436469        -0.704907        -1.166027
 H         1.609465        -2.035168         0.999882
 H         2.451854        -2.128793        -0.533531
 H         3.933642        -1.369586         1.734778
 H         4.121415         1.913474        -0.449291
 H         1.890332         1.579014        -1.486579
 H         2.909115         0.202544        -2.214676
 H         3.273793         1.378645         1.955114
