19
Iteration:  4506
 C        -0.032564        -0.251121        -0.496911
 C         1.415872        -0.025899        -0.177910
 C         2.243302        -1.288751         0.181539
 C         3.499907        -0.738298         0.903745
 O         4.587690        -0.200906         0.086503
 C         3.642985         0.978909        -0.246064
 C         2.424614         0.676837        -1.148986
 C         3.055792         0.687021         1.171428
 O         1.640219         0.792646         1.029973
 H        -0.527035         0.202131         0.411241
 H        -0.468966         0.365624        -1.250583
 H        -0.470001        -1.208414        -0.749551
 H         1.617300        -1.933892         0.820718
 H         2.487196        -1.939488        -0.661949
 H         3.737658        -1.511837         1.566280
 H         4.242645         1.834984        -0.600767
 H         2.063490         1.642318        -1.485199
 H         2.651256         0.140359        -2.062468
 H         3.346748         1.251858         2.076547
