19
Iteration:  1284charge 0 multiplicity 1
 C         0.196618        -0.400220        -0.623807
 C         1.500429        -0.074169        -0.091466
 C         2.203244        -1.334252         0.374187
 C         3.608924        -0.617564         0.905517
 O         4.387323        -0.258104        -0.212852
 C         3.610084         0.987073        -0.271496
 C         2.310418         0.741145        -1.086320
 C         3.059193         0.822298         1.163161
 O         1.595323         0.818133         1.171336
 H        -0.377563        -1.101620         0.014551
 H        -0.388299         0.397941        -1.209761
 H         0.501460        -1.220019        -1.383364
 H         1.553293        -1.695379         1.300579
 H         2.505171        -2.127215        -0.213195
 H         4.039174        -1.293368         1.647996
 H         4.209294         1.998456        -0.486004
 H         1.867963         1.734648        -1.262888
 H         2.430853         0.271829        -2.048979
 H         3.384116         1.361518         2.033327
