19
Iteration:   449
 C        -0.029275        -0.178543        -0.439702
 C         1.439480        -0.148497        -0.199593
 C         2.379321        -1.376166         0.322201
 C         3.557059        -0.663407         0.920513
 O         4.513912        -0.151701        -0.105245
 C         3.626820         0.999429        -0.215298
 C         2.406247         0.580545        -1.190981
 C         2.958251         0.795620         1.200614
 O         1.620517         0.737748         1.021997
 H        -0.582292        -0.565603         0.400638
 H        -0.424062         0.848231        -0.585713
 H        -0.252129        -0.783156        -1.339240
 H         1.819993        -1.932554         0.983951
 H         2.665590        -2.034284        -0.558386
 H         3.992802        -1.331590         1.590104
 H         4.100685         1.956124        -0.446784
 H         1.827402         1.524540        -1.329056
 H         2.770964         0.170133        -2.099525
 H         3.196634         1.436266         2.105307
