19
Iteration:   352
 C         0.013233        -0.232098        -0.511698
 C         1.453934        -0.078104        -0.193376
 C         2.317960        -1.337194         0.289363
 C         3.579089        -0.674914         0.950734
 O         4.511711        -0.179436        -0.114280
 C         3.621219         0.981244        -0.237822
 C         2.367041         0.679653        -1.117310
 C         2.942125         0.811327         1.160797
 O         1.631088         0.702186         1.082910
 H        -0.468872        -0.754234         0.330263
 H        -0.493224         0.764157        -0.608349
 H        -0.204165        -0.894034        -1.386325
 H         1.725280        -2.011884         0.914064
 H         2.807936        -1.961765        -0.568146
 H         4.104028        -1.147313         1.760008
 H         4.152540         1.826363        -0.565238
 H         1.895363         1.548254        -1.495412
 H         2.615069         0.003511        -1.858127
 H         3.364755         1.240399         2.055086
