19
Iteration:   653charge 0 multiplicity 1
 C         0.078292        -0.307022        -0.519657
 C         1.514913        -0.096892        -0.112125
 C         2.282569        -1.369434         0.415203
 C         3.503941        -0.675913         0.908168
 O         4.452422        -0.178396        -0.150310
 C         3.620048         1.006471        -0.266072
 C         2.409075         0.687503        -1.131698
 C         3.015480         0.754096         1.158085
 O         1.594791         0.815860         1.019005
 H        -0.372675        -0.921020         0.291175
 H        -0.498295         0.635773        -0.586243
 H        -0.100069        -0.971746        -1.386052
 H         1.708072        -1.882968         1.270888
 H         2.559903        -2.088162        -0.334922
 H         4.220624        -1.186462         1.571408
 H         4.154944         1.972105        -0.568003
 H         1.779936         1.496217        -1.454807
 H         2.691559         0.145220        -2.009987
 H         3.326273         1.394167         2.045403
