19
Iteration:   307
 C         0.045508        -0.137493        -0.405531
 C         1.514715        -0.111071        -0.188257
 C         2.281627        -1.402679         0.218180
 C         3.517243        -0.671627         0.942995
 O         4.559357        -0.082003        -0.028703
 C         3.610045         1.007209        -0.271356
 C         2.398815         0.581143        -1.201634
 C         3.002640         0.751240         1.181886
 O         1.560486         0.676799         1.020894
 H        -0.452167        -0.636762         0.454805
 H        -0.454887         0.830905        -0.471204
 H        -0.351261        -0.793231        -1.178165
 H         1.767051        -1.901136         1.027494
 H         2.602326        -2.153418        -0.570348
 H         3.994477        -1.183266         1.687493
 H         4.019693         1.984011        -0.534875
 H         1.894402         1.476842        -1.474483
 H         2.687457        -0.021251        -1.964477
 H         3.250469         1.454244         1.995035
