19
Iteration:  1426
 C         0.126625        -0.414889        -0.681250
 C         1.472359        -0.097805        -0.120553
 C         2.300199        -1.282400         0.427954
 C         3.593314        -0.660243         0.984780
 O         4.299203        -0.259347        -0.268146
 C         3.588047         1.042518        -0.223648
 C         2.388753         0.760389        -1.104634
 C         3.052485         0.805904         1.204987
 O         1.656850         0.796546         1.118895
 H        -0.402704        -1.111624        -0.031115
 H        -0.539673         0.317758        -1.178937
 H         0.325659        -1.208421        -1.435424
 H         1.875619        -1.532660         1.473406
 H         2.308859        -2.160191        -0.108296
 H         4.136584        -1.143932         1.702755
 H         4.383031         1.807365        -0.577821
 H         1.884978         1.768886        -1.161384
 H         2.416897         0.231524        -2.057051
 H         3.366647         1.372971         2.071849
