19
Iteration:   208charge 0 multiplicity 1
 C         0.095356        -0.220418        -0.476240
 C         1.522359        -0.136303        -0.091908
 C         2.325138        -1.407056         0.372288
 C         3.552299        -0.697260         0.943916
 O         4.428130        -0.186495        -0.128630
 C         3.611526         1.075019        -0.227104
 C         2.399461         0.676780        -1.177032
 C         3.008778         0.776628         1.147639
 O         1.565720         0.761864         0.965626
 H        -0.511405        -0.735507         0.351649
 H        -0.337692         0.768216        -0.684376
 H        -0.166265        -0.819189        -1.358837
 H         1.731960        -1.924632         1.165654
 H         2.544830        -2.127673        -0.485354
 H         4.006524        -1.360655         1.591083
 H         4.285641         1.941748        -0.344473
 H         1.817253         1.526573        -1.491560
 H         2.708371         0.130683        -1.985381
 H         3.158508         1.362027         2.111106
