19
Iteration:  3075charge 0 multiplicity 1
 C         0.076930        -0.144749        -0.416972
 C         1.544775        -0.087011        -0.205081
 C         2.289921        -1.380116         0.268149
 C         3.433484        -0.601327         1.039415
 O         4.425833        -0.219857        -0.011158
 C         3.665626         0.948868        -0.323952
 C         2.485544         0.625382        -1.173529
 C         2.989286         0.775402         1.097480
 O         1.569029         0.706556         0.994746
 H        -0.323787        -0.649810         0.520648
 H        -0.248920         0.896674        -0.409522
 H        -0.250797        -0.734861        -1.244794
 H         1.660790        -2.110149         0.779726
 H         2.892500        -1.946561        -0.507044
 H         3.787631        -1.089359         1.965180
 H         4.264522         1.885469        -0.626051
 H         1.930088         1.542207        -1.410009
 H         2.671165         0.069237        -1.995928
 H         3.188225         1.483322         1.925688
