19
Iteration:  4115charge 0 multiplicity 1
 C         0.114339        -0.063160        -0.456636
 C         1.495494        -0.144529        -0.195635
 C         2.344025        -1.343705         0.266455
 C         3.519578        -0.715151         0.927151
 O         4.463465        -0.174105        -0.031711
 C         3.589199         0.952762        -0.224971
 C         2.516022         0.622207        -1.224960
 C         2.934437         0.706453         1.198004
 O         1.514962         0.744201         1.037672
 H        -0.339069        -0.127987         0.639491
 H        -0.232870         0.920393        -0.820015
 H        -0.348379        -0.878618        -1.082722
 H         1.832717        -2.014092         0.950088
 H         2.582397        -1.893823        -0.659173
 H         3.990313        -1.266594         1.754093
 H         4.091659         1.877360        -0.526212
 H         1.818847         1.472144        -1.531603
 H         2.858726         0.038503        -2.171712
 H         3.249924         1.343756         2.044080
