19
Iteration:  2068charge 0 multiplicity 1
 C        -0.088869        -0.122073        -0.368621
 C         1.388469        -0.049526        -0.146724
 C         2.403562        -1.347709         0.225503
 C         3.633632        -0.689319         0.900938
 O         4.564955        -0.106702         0.028758
 C         3.641146         0.987867        -0.277602
 C         2.439806         0.494483        -1.201758
 C         2.956677         0.739613         1.129555
 O         1.496352         0.726835         0.990448
 H        -0.502037        -0.614693         0.565732
 H        -0.473706         0.863444        -0.385123
 H        -0.174448        -0.854626        -1.128212
 H         2.056666        -2.105190         1.015955
 H         2.600986        -1.857946        -0.711373
 H         4.160132        -1.236984         1.703327
 H         3.935678         1.917411        -0.604756
 H         2.082662         1.391960        -1.743660
 H         2.915637        -0.236957        -1.983975
 H         3.239522         1.428724         1.993207
