19
Iteration:  1948charge 0 multiplicity 1
 C        -0.066437        -0.236374        -0.442192
 C         1.430074        -0.135294        -0.173203
 C         2.351535        -1.361415         0.280249
 C         3.561714        -0.635729         0.935328
 O         4.530350        -0.125585        -0.075921
 C         3.660637         0.999061        -0.223161
 C         2.408405         0.609922        -1.115563
 C         2.974578         0.791756         1.134096
 O         1.600369         0.734800         0.993924
 H        -0.604402        -0.634065         0.493368
 H        -0.451517         0.795664        -0.537143
 H        -0.322195        -0.904489        -1.275907
 H         1.896757        -2.108152         0.997409
 H         2.776239        -1.860445        -0.604134
 H         3.988883        -1.223848         1.747283
 H         4.221620         1.831736        -0.559320
 H         1.981863         1.487697        -1.645125
 H         2.710588        -0.173780        -1.879158
 H         3.183933         1.436604         1.990361
