19
Iteration:  4529charge 0 multiplicity 1
 C         0.002017        -0.135142        -0.368431
 C         1.544422        -0.038140        -0.235984
 C         2.313643        -1.413937         0.218781
 C         3.461489        -0.716256         0.965712
 O         4.500292        -0.224693        -0.059946
 C         3.645965         0.976016        -0.144761
 C         2.528025         0.720174        -1.223744
 C         2.937648         0.744275         1.176490
 O         1.565294         0.733549         0.987406
 H        -0.484652         0.085403         0.586615
 H        -0.506608         0.508347        -1.074741
 H        -0.359709        -1.085670        -0.754754
 H         1.679060        -2.098619         0.810892
 H         2.635798        -2.008093        -0.632695
 H         3.864727        -1.393689         1.671683
 H         4.242901         1.882112        -0.291150
 H         2.094393         1.579331        -1.598922
 H         2.742580         0.079081        -2.081380
 H         3.164183         1.439828         2.031255
