19
Iteration:  3709
 C         0.121121        -0.314579        -0.616332
 C         1.501139        -0.009528        -0.090624
 C         2.213324        -1.369095         0.348127
 C         3.437849        -0.702453         0.997544
 O         4.467906        -0.255273        -0.079169
 C         3.712513         0.946456        -0.321047
 C         2.390054         0.790906        -1.129472
 C         3.026170         0.786297         1.133360
 O         1.598612         0.759879         1.088731
 H        -0.572764        -0.454246         0.189449
 H        -0.251524         0.537427        -1.240695
 H         0.235306        -1.200618        -1.222849
 H         1.552405        -1.844840         1.151369
 H         2.429584        -2.141561        -0.415949
 H         3.874040        -1.248600         1.816985
 H         4.282230         1.875383        -0.602098
 H         1.866083         1.834709        -1.353333
 H         2.554746         0.419223        -2.111029
 H         3.457643         1.385690         1.944209
