19
Iteration:  2043
 C         0.020764        -0.330303        -0.494768
 C         1.462689        -0.144043        -0.151235
 C         2.240378        -1.354543         0.293489
 C         3.532651        -0.640469         0.940535
 O         4.499693        -0.160389        -0.079034
 C         3.621556         0.991648        -0.251984
 C         2.359305         0.648845        -1.157638
 C         3.048742         0.803481         1.150989
 O         1.649863         0.792149         1.067929
 H        -0.587612        -0.769012         0.247167
 H        -0.276549         0.692771        -0.617572
 H         0.071048        -0.894611        -1.419435
 H         1.683897        -1.813162         1.031981
 H         2.474990        -2.080778        -0.581641
 H         4.066678        -1.141815         1.741372
 H         3.971948         1.987451        -0.562852
 H         1.916661         1.572134        -1.546746
 H         2.782599         0.081356        -1.929117
 H         3.389270         1.337620         2.027665
