19
Iteration:  4942charge 0 multiplicity 1
 C        -0.052937        -0.158064        -0.526308
 C         1.459709         0.005529        -0.190739
 C         2.267729        -1.311757         0.350661
 C         3.537923        -0.704267         1.018132
 O         4.563395        -0.225411         0.102636
 C         3.606477         0.863666        -0.276859
 C         2.429884         0.539614        -1.291769
 C         3.039793         0.786952         1.140338
 O         1.593870         0.830164         0.976415
 H        -0.478555         0.079248         0.435616
 H        -0.333135         0.459864        -1.434261
 H        -0.217344        -1.161835        -0.957690
 H         1.632764        -1.748946         1.117165
 H         2.398013        -2.054275        -0.466222
 H         3.934324        -1.237602         1.851409
 H         4.339041         1.732125        -0.394689
 H         2.045340         1.394442        -1.714545
 H         2.640094        -0.130769        -2.131932
 H         3.380307         1.507687         1.917175
