19
Iteration:  3115charge 0 multiplicity 1
 C        -0.065166        -0.189572        -0.516177
 C         1.463742        -0.085309        -0.158744
 C         2.218441        -1.311453         0.340738
 C         3.530651        -0.701383         0.934523
 O         4.634879        -0.140856        -0.032281
 C         3.646047         0.946604        -0.237564
 C         2.452714         0.542011        -1.089943
 C         2.942267         0.696389         1.141984
 O         1.589253         0.848921         0.939090
 H        -0.366882        -1.016834         0.123286
 H        -0.712770         0.724236        -0.243969
 H        -0.142037        -0.471264        -1.571024
 H         1.731130        -1.859317         1.143882
 H         2.261025        -2.024403        -0.511556
 H         4.200395        -1.120096         1.723918
 H         4.184074         1.810566        -0.507765
 H         2.090901         1.574453        -1.474684
 H         2.715593        -0.127464        -1.989499
 H         3.508212         1.192315         1.983218
