19
Iteration:   138charge 0 multiplicity 1
 C         0.131841        -0.377316        -0.558640
 C         1.516435        -0.104897        -0.128366
 C         2.271787        -1.270897         0.380900
 C         3.501938        -0.715200         0.942152
 O         4.402661        -0.215876        -0.123982
 C         3.585018         0.937919        -0.241429
 C         2.364913         0.707968        -1.115230
 C         3.048165         0.827987         1.146202
 O         1.633070         0.835733         1.046453
 H        -0.378906        -0.847380         0.262964
 H        -0.321584         0.603315        -0.828446
 H         0.150292        -0.983236        -1.482468
 H         1.665497        -1.926403         1.005655
 H         2.430818        -1.856425        -0.473811
 H         4.105989        -1.273674         1.713883
 H         4.306476         1.904635        -0.553361
 H         1.693396         1.569617        -1.120330
 H         2.551582         0.238681        -2.157112
 H         3.499237         1.363003         1.931863
