19
Iteration:   738charge 0 multiplicity 1
 C        -0.080624        -0.298964        -0.383980
 C         1.489298        -0.055422        -0.201228
 C         2.323347        -1.374394         0.245872
 C         3.545083        -0.622065         0.966367
 O         4.524609        -0.150171        -0.092237
 C         3.679920         1.007546        -0.250846
 C         2.440323         0.654137        -1.224441
 C         3.002950         0.752866         1.169103
 O         1.569698         0.740444         1.028763
 H        -0.509579        -0.716291         0.607216
 H        -0.668974         0.630938        -0.588582
 H        -0.250227        -1.093565        -1.158563
 H         1.616375        -1.798439         1.059555
 H         2.558736        -2.172939        -0.419008
 H         4.052496        -1.140613         1.911797
 H         4.076576         1.972016        -0.498902
 H         1.893710         1.562984        -1.635791
 H         2.915764         0.006881        -2.068999
 H         3.324079         1.317954         2.115140
