19
Iteration:  3934charge 0 multiplicity 1
 C        -0.041913        -0.173133        -0.477256
 C         1.499872        -0.066018        -0.213736
 C         2.286797        -1.436027         0.274939
 C         3.529954        -0.681181         0.998961
 O         4.421267        -0.211429         0.039487
 C         3.688286         0.980953        -0.243964
 C         2.462145         0.718075        -1.193939
 C         3.009377         0.750413         1.147280
 O         1.628771         0.762966         0.931867
 H        -0.291303        -0.503146         0.491879
 H        -0.488726         0.713452        -0.805158
 H        -0.271263        -1.091855        -1.071738
 H         1.615116        -1.760737         1.069150
 H         2.532265        -2.128873        -0.526826
 H         4.014691        -1.371549         1.710606
 H         4.295776         1.879777        -0.341978
 H         1.888445         1.649924        -1.314289
 H         2.635464         0.108754        -2.113490
 H         3.373411         1.337976         2.013230
