19
Iteration:   879charge 0 multiplicity 1
 C         0.027852        -0.258708        -0.436623
 C         1.498775        -0.115500        -0.154045
 C         2.328596        -1.428651         0.281411
 C         3.561171        -0.631332         0.960871
 O         4.497998        -0.151149        -0.064326
 C         3.615082         0.991792        -0.297853
 C         2.351305         0.680005        -1.140958
 C         2.961895         0.809462         1.168790
 O         1.622063         0.740355         0.989002
 H        -0.570598        -0.536948         0.441808
 H        -0.324533         0.707673        -0.647679
 H        -0.146540        -1.023173        -1.162892
 H         1.704367        -2.014860         1.040383
 H         2.613182        -2.059234        -0.533182
 H         4.191609        -1.347117         1.588626
 H         4.170865         1.900252        -0.341844
 H         1.878885         1.607073        -1.540412
 H         2.542902         0.135973        -2.120992
 H         3.202807         1.414459         2.064277
