19
Iteration:  4463
 C         0.131351        -0.221065        -0.716754
 C         1.597982        -0.134377        -0.218419
 C         2.248984        -1.337295         0.455367
 C         3.489786        -0.729387         0.989557
 O         4.244042        -0.316692        -0.194029
 C         3.631529         1.017380        -0.206885
 C         2.381280         0.836768        -1.127825
 C         3.051389         0.781606         1.280347
 O         1.702436         0.744328         1.076844
 H        -0.537285        -0.071347         0.162773
 H        -0.205977         0.550316        -1.360509
 H         0.044510        -1.177293        -1.220865
 H         1.572064        -1.799600         1.198618
 H         2.597610        -2.111899        -0.247834
 H         4.069940        -1.244560         1.706930
 H         4.243347         1.931501        -0.353351
 H         1.753317         1.584764        -1.363246
 H         2.703466         0.361212        -2.047813
 H         3.541546         1.340899         2.098527
