19
Iteration:  3500
 C         0.014842        -0.201972        -0.466488
 C         1.491151        -0.104878        -0.156406
 C         2.299632        -1.311144         0.302327
 C         3.509447        -0.659831         1.002085
 O         4.471935        -0.212247        -0.051027
 C         3.705277         0.956590        -0.263129
 C         2.445254         0.640080        -1.101261
 C         2.968183         0.779232         1.121675
 O         1.583979         0.752978         0.940289
 H        -0.618143        -0.822662         0.206393
 H        -0.495447         0.770167        -0.502271
 H        -0.241402        -0.698022        -1.453309
 H         1.615618        -1.896382         0.992592
 H         2.652367        -2.111823        -0.392796
 H         3.976118        -1.242786         1.779516
 H         4.271955         1.873249        -0.526941
 H         1.945511         1.581916        -1.475160
 H         2.761625         0.094222        -1.933939
 H         3.351111         1.397872         1.974427
