19
Iteration:  1749
 C         0.093971        -0.228217        -0.476008
 C         1.526024        -0.133071        -0.173163
 C         2.336540        -1.431377         0.358281
 C         3.553037        -0.678011         0.952434
 O         4.462752        -0.178476        -0.076732
 C         3.556872         1.009412        -0.284733
 C         2.392447         0.686353        -1.183145
 C         2.944853         0.788916         1.120922
 O         1.562256         0.778882         1.031124
 H        -0.318302        -0.670273         0.438994
 H        -0.356637         0.791240        -0.547191
 H        -0.070071        -1.049438        -1.200878
 H         1.871722        -2.002863         1.092486
 H         2.792119        -2.097645        -0.451056
 H         4.102716        -1.044389         1.864178
 H         4.079751         1.855007        -0.501691
 H         1.901522         1.639580        -1.488519
 H         2.697663         0.277400        -2.139917
 H         3.367414         1.301685         2.048431
