19
Iteration:  4234charge 0 multiplicity 1
 C        -0.002966        -0.120715        -0.491950
 C         1.441120        -0.075129        -0.114432
 C         2.261834        -1.364463         0.149320
 C         3.532765        -0.727624         0.935676
 O         4.592465        -0.111208         0.053040
 C         3.605410         0.926152        -0.286402
 C         2.397081         0.569836        -1.143929
 C         2.978316         0.708824         1.133866
 O         1.618888         0.771567         1.089748
 H        -0.826201        -0.474600         0.148854
 H        -0.250987         0.900220        -0.623553
 H        -0.106093        -0.632756        -1.401539
 H         1.793039        -2.071237         0.830335
 H         2.496562        -1.776433        -0.847077
 H         3.928443        -1.241204         1.811542
 H         4.221112         1.783725        -0.644719
 H         2.186069         1.605933        -1.538562
 H         2.608237        -0.151016        -2.016027
 H         3.326033         1.263343         1.983274
