19
Iteration:  2896
 C         0.160587        -0.261789        -0.691758
 C         1.541639        -0.086153        -0.196237
 C         2.265337        -1.375490         0.517684
 C         3.539963        -0.658057         1.028107
 O         4.323719        -0.366207        -0.131217
 C         3.598271         0.994677        -0.346614
 C         2.351912         0.858380        -1.099974
 C         3.057795         0.842466         1.155943
 O         1.619488         0.702947         1.079437
 H        -0.221356        -0.719237         0.191971
 H        -0.265069         0.745914        -0.939798
 H         0.187301        -0.917809        -1.638201
 H         1.524601        -1.510460         1.345767
 H         2.473199        -2.248234        -0.055054
 H         4.029817        -1.223794         1.842204
 H         4.237273         1.745027        -0.703993
 H         1.880485         1.802070        -1.203819
 H         2.671329         0.501791        -2.145237
 H         3.517041         1.435119         1.892628
