19
Iteration:  4367charge 0 multiplicity 1
 C        -0.111385        -0.097692        -0.460275
 C         1.515569        -0.120523        -0.272849
 C         2.290297        -1.355059         0.351683
 C         3.577862        -0.700452         0.982356
 O         4.517505        -0.239999        -0.067698
 C         3.631527         0.947375        -0.195634
 C         2.516968         0.700412        -1.138108
 C         2.941401         0.741116         1.149692
 O         1.583106         0.729560         0.930786
 H        -0.458981        -0.845094         0.241328
 H        -0.426410         0.805321        -0.004757
 H        -0.551907        -0.142290        -1.472464
 H         1.691491        -1.908459         1.102578
 H         2.581619        -2.094013        -0.396158
 H         4.083796        -1.298760         1.743434
 H         4.314803         1.780544        -0.402258
 H         2.044241         1.685626        -1.449035
 H         2.977806         0.183601        -2.079869
 H         3.105920         1.387710         2.062595
