19
Iteration:  3951charge 0 multiplicity 1
 C        -0.020339        -0.146774        -0.408712
 C         1.479712        -0.126030        -0.234151
 C         2.331158        -1.275647         0.197781
 C         3.470239        -0.714870         1.002249
 O         4.606429        -0.227893         0.067664
 C         3.589731         0.894101        -0.250864
 C         2.426042         0.665772        -1.261774
 C         2.966629         0.766341         1.151075
 O         1.566660         0.761112         1.020690
 H        -0.523123        -0.555398         0.567927
 H        -0.300911         0.991802        -0.444922
 H        -0.321351        -0.618699        -1.339637
 H         1.774151        -2.076001         0.758805
 H         2.844508        -1.786950        -0.656596
 H         3.911689        -1.151137         1.902889
 H         4.222534         1.691420        -0.665739
 H         2.049943         1.632389        -1.627685
 H         2.766324        -0.080384        -2.062231
 H         3.206962         1.437197         1.973399
