19
Iteration:  2663
 C        -0.053592        -0.099464        -0.395786
 C         1.458006        -0.126239        -0.204189
 C         2.283544        -1.349411         0.203445
 C         3.603179        -0.734337         0.910801
 O         4.588412        -0.081972         0.082663
 C         3.616771         0.914727        -0.251552
 C         2.394397         0.516026        -1.244244
 C         2.972243         0.787180         1.126886
 O         1.583787         0.771556         1.044165
 H        -0.521323        -0.427052         0.629729
 H        -0.393009         0.919144        -0.745949
 H        -0.500591        -0.718399        -1.185880
 H         1.728381        -1.852459         0.989820
 H         2.553259        -2.107364        -0.610280
 H         4.163063        -1.406796         1.537551
 H         3.961425         1.984533        -0.358994
 H         1.988185         1.345192        -1.813409
 H         2.742767        -0.258512        -1.881616
 H         3.548832         1.363897         1.833278
