19
Iteration:  1802charge 0 multiplicity 1
 C         0.055713        -0.309844        -0.399249
 C         1.491693        -0.099192        -0.102694
 C         2.281159        -1.331847         0.263037
 C         3.519891        -0.747174         0.922618
 O         4.501037        -0.086784        -0.001126
 C         3.646707         0.981962        -0.303787
 C         2.379129         0.634514        -1.234438
 C         2.975495         0.785878         1.134530
 O         1.567594         0.769811         1.031883
 H        -0.492285        -0.699382         0.455003
 H        -0.228599         0.701790        -0.729972
 H        -0.050068        -0.893296        -1.328925
 H         1.838132        -1.819179         1.080259
 H         2.579837        -2.043108        -0.648533
 H         4.090748        -1.248185         1.747157
 H         4.165022         1.885468        -0.490647
 H         2.022235         1.645979        -1.690603
 H         2.665085        -0.121765        -1.994373
 H         3.428288         1.468640         1.915264
