19
Iteration:  2789
 C         0.067888        -0.169617        -0.422119
 C         1.516503        -0.121291        -0.178730
 C         2.314719        -1.351513         0.273548
 C         3.528499        -0.694725         0.973619
 O         4.472139        -0.182487         0.041937
 C         3.517776         1.002247        -0.320503
 C         2.445970         0.564316        -1.189786
 C         3.002462         0.763395         1.165538
 O         1.610112         0.801054         0.991842
 H        -0.553917        -0.764464         0.147113
 H        -0.344640         0.865072        -0.208481
 H        -0.218332        -0.436499        -1.472008
 H         1.582238        -2.037793         0.805973
 H         2.746925        -1.928226        -0.580256
 H         3.920227        -1.421095         1.764438
 H         4.134523         1.828939        -0.698057
 H         1.840043         1.445944        -1.594743
 H         2.781965         0.011108        -2.050359
 H         3.388529         1.401593         1.896267
