19
Iteration:  4499charge 0 multiplicity 1
 C        -0.031798        -0.243258        -0.531558
 C         1.490825        -0.028077        -0.177646
 C         2.205244        -1.273353         0.198208
 C         3.455482        -0.722954         0.893503
 O         4.657096        -0.245559         0.007502
 C         3.652702         0.946608        -0.202467
 C         2.396253         0.676863        -1.112138
 C         3.009485         0.749354         1.185098
 O         1.610597         0.801462         1.062141
 H        -0.530665         0.026595         0.350305
 H        -0.298117         0.323767        -1.453088
 H        -0.417145        -1.274331        -0.758503
 H         1.749210        -1.967146         0.923838
 H         2.454732        -1.839539        -0.704169
 H         3.900651        -1.534369         1.551760
 H         4.216706         1.818132        -0.517543
 H         1.997122         1.642513        -1.379509
 H         2.472938         0.031703        -2.017392
 H         3.357931         1.392921         2.023604
