19
Iteration:  3424charge 0 multiplicity 1
 C         0.175789        -0.283311        -0.588640
 C         1.526945        -0.037775        -0.133827
 C         2.304306        -1.325380         0.357748
 C         3.500391        -0.721922         1.014236
 O         4.381134        -0.232505        -0.083346
 C         3.648373         0.914578        -0.365077
 C         2.349501         0.722186        -1.125144
 C         3.002092         0.758785         1.237793
 O         1.603081         0.811869         0.988407
 H        -0.525259        -0.659608         0.205338
 H        -0.292327         0.665922        -0.866356
 H         0.050132        -0.960881        -1.506786
 H         1.753677        -1.744726         1.247184
 H         2.594061        -2.199068        -0.251929
 H         3.927772        -1.256818         1.850521
 H         4.319765         1.790272        -0.496305
 H         1.861945         1.783917        -1.194900
 H         2.356088         0.361517        -2.131375
 H         3.434406         1.397022         2.059403
