19
Iteration:  4533
 C         0.039654        -0.156390        -0.400458
 C         1.501279        -0.053427        -0.235406
 C         2.315583        -1.399352         0.235508
 C         3.475335        -0.705168         0.953562
 O         4.495491        -0.250090        -0.089568
 C         3.651364         0.992572        -0.157659
 C         2.527374         0.705341        -1.186309
 C         2.947375         0.764841         1.207970
 O         1.547668         0.729714         0.980236
 H        -0.371294         0.139677         0.546923
 H        -0.486750         0.712825        -0.937074
 H        -0.392318        -1.123839        -0.708951
 H         1.614149        -2.036249         0.797518
 H         2.754952        -1.982683        -0.601538
 H         3.791663        -1.497752         1.721786
 H         4.216685         1.918640        -0.307283
 H         2.068386         1.647745        -1.585568
 H         2.827875         0.103686        -2.062222
 H         3.110313         1.433804         2.039957
