19
Iteration:   892
 C        -0.015179        -0.190652        -0.357657
 C         1.523120        -0.177047        -0.221916
 C         2.350565        -1.344941         0.262711
 C         3.550427        -0.725467         0.901668
 O         4.505741        -0.070657        -0.016097
 C         3.559343         1.036838        -0.209077
 C         2.385895         0.594804        -1.180761
 C         3.011750         0.735493         1.170581
 O         1.604821         0.733755         0.930950
 H        -0.286811        -0.511536         0.616849
 H        -0.410651         0.788063        -0.612991
 H        -0.445903        -0.752786        -1.169957
 H         1.769232        -1.919943         1.035861
 H         2.684600        -1.991974        -0.459570
 H         3.949859        -1.154930         1.906575
 H         3.946420         1.756055        -0.774904
 H         1.744670         1.488124        -1.453788
 H         2.900028         0.002254        -1.958529
 H         3.309125         1.314435         2.005673
