19
Iteration:   187charge 0 multiplicity 1
 C        -0.004192        -0.172666        -0.331530
 C         1.492335        -0.148308        -0.290468
 C         2.345205        -1.389957         0.219907
 C         3.528315        -0.639670         0.950094
 O         4.508055        -0.096442         0.004067
 C         3.561180         0.973935        -0.269147
 C         2.493393         0.581439        -1.214488
 C         2.940664         0.739332         1.163402
 O         1.592010         0.743409         1.008423
 H        -0.336518        -0.549530         0.698238
 H        -0.273386         0.897668        -0.313386
 H        -0.519301        -0.696830        -1.157525
 H         1.667568        -1.914375         0.939401
 H         2.728679        -2.188411        -0.546836
 H         3.950437        -1.229239         1.755468
 H         4.153235         1.754436        -0.547605
 H         1.986290         1.505044        -1.494931
 H         2.766570         0.003144        -2.018469
 H         3.311099         1.512242         1.912815
