19
Iteration:  2150
 C         0.227230        -0.553305        -0.702814
 C         1.445996        -0.031145        -0.047307
 C         2.182210        -1.330785         0.459143
 C         3.458605        -0.711002         0.899815
 O         4.293879        -0.250970        -0.209621
 C         3.654964         1.020708        -0.323878
 C         2.368717         0.829811        -1.087253
 C         3.078296         0.790332         1.211066
 O         1.747213         0.880799         1.190012
 H        -0.489439        -1.158295        -0.178257
 H        -0.386383         0.215365        -1.271875
 H         0.513224        -1.125101        -1.640016
 H         1.707959        -1.661582         1.370046
 H         2.194466        -2.265991        -0.204270
 H         4.032881        -1.113562         1.720712
 H         4.287906         1.944654        -0.662336
 H         1.862024         1.792959        -1.363680
 H         2.471026         0.339795        -1.989184
 H         3.472650         1.557751         1.798728
