19
Iteration:  3906
 C         0.130706        -0.359161        -0.705031
 C         1.527198        -0.009314        -0.129340
 C         2.205684        -1.264394         0.428248
 C         3.540957        -0.696668         0.960040
 O         4.382572        -0.350179        -0.227564
 C         3.659534         1.008968        -0.218674
 C         2.461325         0.736444        -1.084172
 C         3.032758         0.760648         1.228899
 O         1.541284         0.845438         1.094930
 H        -0.437320        -0.374481         0.260116
 H        -0.266012         0.501581        -1.430774
 H         0.264195        -1.377014        -1.120728
 H         1.500056        -1.541621         1.232184
 H         2.376100        -2.024333        -0.364898
 H         4.121076        -1.480841         1.465093
 H         4.287674         1.931287        -0.399146
 H         1.898738         1.687783        -1.284719
 H         2.709363         0.129566        -1.939362
 H         3.379599         1.280835         2.107772
