19
Iteration:  1104charge 0 multiplicity 1
 C         0.140624        -0.448569        -0.640671
 C         1.487795        -0.031819        -0.065758
 C         2.229638        -1.239524         0.427398
 C         3.568738        -0.627602         0.998132
 O         4.402835        -0.282345        -0.208280
 C         3.616040         1.013966        -0.280140
 C         2.294825         0.794427        -1.142313
 C         3.081104         0.765565         1.199856
 O         1.637920         0.758891         1.097683
 H        -0.483184        -1.177053        -0.028996
 H        -0.481070         0.355900        -1.038365
 H         0.463803        -0.921129        -1.573540
 H         1.777079        -1.729834         1.232446
 H         2.408509        -2.124341        -0.367113
 H         4.127036        -1.280638         1.641038
 H         4.037085         1.973040        -0.468942
 H         1.764760         1.754557        -1.331903
 H         2.535951         0.163794        -2.034509
 H         3.488979         1.420653         1.948597
