19
Iteration:  3024charge 0 multiplicity 1
 C         0.210868        -0.443266        -0.718111
 C         1.496969        -0.033923        -0.097630
 C         2.096765        -1.216690         0.454279
 C         3.455259        -0.695544         0.885917
 O         4.369269        -0.287271        -0.238680
 C         3.656876         0.987418        -0.238691
 C         2.414261         0.728703        -1.096720
 C         3.084041         0.799730         1.191353
 O         1.670090         0.854353         1.204515
 H        -0.695798        -0.671346        -0.115453
 H         0.032072         0.378320        -1.362283
 H         0.502495        -1.365252        -1.324929
 H         1.550115        -1.610563         1.348475
 H         2.133620        -2.086290        -0.152354
 H         3.762276        -1.292037         1.695785
 H         4.355764         1.801225        -0.475537
 H         1.725542         1.516517        -1.420211
 H         2.834815         0.093834        -2.000974
 H         3.504595         1.425215         1.956494
