19
Iteration:   618charge 0 multiplicity 1
 C        -0.032829        -0.201894        -0.323604
 C         1.479762        -0.111898        -0.213677
 C         2.369752        -1.328458         0.200392
 C         3.453506        -0.654845         0.989791
 O         4.546975        -0.103538         0.031553
 C         3.644161         0.933162        -0.371417
 C         2.447252         0.607745        -1.257643
 C         2.913590         0.776346         1.147194
 O         1.590471         0.735909         1.024994
 H        -0.025730        -0.700901         0.740628
 H        -0.668714         0.700749        -0.181062
 H        -0.454521        -0.842744        -1.155054
 H         1.861051        -2.133052         0.893975
 H         2.793232        -1.868572        -0.582656
 H         4.099064        -1.344432         1.760445
 H         4.252559         1.806325        -0.605380
 H         2.021176         1.503002        -1.542687
 H         2.695563        -0.087778        -2.093768
 H         3.241265         1.386987         1.969440
