19
Iteration:  3839charge 0 multiplicity 1
 C        -0.002359        -0.191277        -0.458659
 C         1.503320        -0.077183        -0.190288
 C         2.252870        -1.335439         0.341690
 C         3.524118        -0.732971         1.001479
 O         4.451155        -0.267674        -0.028712
 C         3.639755         1.022984        -0.262283
 C         2.521082         0.706598        -1.277609
 C         2.996096         0.734286         1.201338
 O         1.596697         0.771760         0.964796
 H        -0.425379        -0.966849         0.184308
 H        -0.555228         0.837045        -0.468164
 H        -0.216539        -0.635983        -1.484853
 H         1.619512        -1.712362         1.144026
 H         2.653670        -2.063423        -0.356645
 H         3.874269        -1.332742         1.844805
 H         4.256803         1.964166        -0.284303
 H         1.982106         1.615405        -1.674188
 H         2.853847         0.051339        -1.996071
 H         3.291163         1.426197         2.007021
