19
Iteration:  2960charge 0 multiplicity 1
 C         0.019456        -0.179921        -0.352350
 C         1.473166        -0.058523        -0.194533
 C         2.228899        -1.362075         0.248329
 C         3.399393        -0.697388         0.952151
 O         4.566069        -0.107800         0.059808
 C         3.730645         0.916745        -0.287747
 C         2.494223         0.606363        -1.231762
 C         2.971291         0.743873         1.100317
 O         1.569682         0.757311         0.992390
 H        -0.460873        -0.924305         0.316890
 H        -0.485131         0.781781        -0.182224
 H        -0.390334        -0.545234        -1.347570
 H         1.642193        -1.743638         1.113168
 H         2.488583        -2.062118        -0.503460
 H         3.935904        -1.224460         1.712467
 H         4.285646         1.722881        -0.685061
 H         2.223877         1.557040        -1.739691
 H         2.840208        -0.186287        -2.064893
 H         3.262736         1.380575         1.898188
