19
Iteration:  3166charge 0 multiplicity 1
 C         0.180197        -0.349163        -0.707103
 C         1.508011         0.013717        -0.083751
 C         2.286291        -1.385800         0.443271
 C         3.561291        -0.690777         1.041022
 O         4.268062        -0.426654        -0.241634
 C         3.643884         0.971129        -0.264037
 C         2.353144         0.853059        -1.050893
 C         3.035821         0.895737         1.248485
 O         1.587095         0.810313         1.012773
 H        -0.482323        -0.796456        -0.000795
 H        -0.228554         0.549167        -1.166412
 H         0.503676        -1.127901        -1.480133
 H         1.649877        -1.927043         1.208303
 H         2.692407        -2.159897        -0.190444
 H         4.333893        -1.084404         1.700419
 H         4.494357         1.658376        -0.463191
 H         1.945075         1.785930        -1.146830
 H         2.503118         0.348716        -2.076724
 H         3.387561         1.692216         1.916850
