19
Iteration:  1679charge 0 multiplicity 1
 C         0.088484        -0.385067        -0.562058
 C         1.541609        -0.086567        -0.131636
 C         2.296635        -1.370225         0.439297
 C         3.551288        -0.659693         0.947397
 O         4.358866        -0.268804        -0.165982
 C         3.595067         1.054240        -0.264706
 C         2.390293         0.803214        -1.157037
 C         3.018571         0.850354         1.200672
 O         1.652577         0.751080         1.075895
 H        -0.555381        -1.061619         0.052287
 H        -0.470928         0.488867        -0.858267
 H         0.190776        -0.988433        -1.471685
 H         1.724730        -1.725502         1.268781
 H         2.469013        -2.041418        -0.432848
 H         4.152731        -1.247906         1.633372
 H         4.326665         1.740627        -0.734111
 H         1.694665         1.702571        -1.408162
 H         2.597512         0.222452        -2.112928
 H         3.221544         1.494907         2.009562
