19
Iteration:  3605
 C         0.208078        -0.388750        -0.700917
 C         1.553794        -0.107580        -0.104433
 C         2.272863        -1.341180         0.429778
 C         3.471879        -0.730225         0.991455
 O         4.277498        -0.348942        -0.185640
 C         3.683894         0.954854        -0.255790
 C         2.364326         0.814001        -1.045224
 C         3.039338         0.888170         1.151679
 O         1.606660         0.889448         1.101594
 H        -0.557630        -1.015488        -0.113640
 H        -0.167202         0.636982        -0.871914
 H         0.333440        -0.799262        -1.689284
 H         1.593792        -1.829359         1.109719
 H         2.542080        -1.959749        -0.445957
 H         3.976083        -1.278819         1.847341
 H         4.316191         1.741309        -0.664386
 H         1.871023         1.809161        -1.031321
 H         2.514351         0.312188        -2.115324
 H         3.612371         1.437063         1.889000
