19
Iteration:  1440
 C         0.093343        -0.441127        -0.603590
 C         1.503165        -0.030520        -0.066575
 C         2.279421        -1.317605         0.451914
 C         3.565743        -0.679484         0.876029
 O         4.446210        -0.214067        -0.181964
 C         3.613188         0.987449        -0.267798
 C         2.328776         0.733717        -1.076734
 C         3.041516         0.782582         1.174178
 O         1.582427         0.825790         1.053814
 H        -0.610845        -0.827030         0.187056
 H        -0.348419         0.518926        -0.953271
 H         0.336013        -1.057385        -1.475254
 H         1.627390        -1.835804         1.149171
 H         2.561594        -2.020041        -0.464251
 H         4.176963        -1.274469         1.628243
 H         4.073572         1.933799        -0.467438
 H         1.804185         1.581499        -1.413901
 H         2.772946         0.163156        -1.910118
 H         3.361782         1.387685         2.085303
