19
Iteration:   513charge 0 multiplicity 1
 C         0.025366        -0.378977        -0.591076
 C         1.475617        -0.040557        -0.075051
 C         2.342224        -1.286648         0.359551
 C         3.542225        -0.723442         0.967659
 O         4.487014        -0.302198        -0.158404
 C         3.622187         1.012561        -0.271066
 C         2.347773         0.713882        -1.085445
 C         2.975847         0.798214         1.149631
 O         1.611129         0.845353         1.079013
 H        -0.564508        -0.990164         0.045431
 H        -0.491522         0.496576        -0.911679
 H         0.241581        -1.012068        -1.447133
 H         1.867269        -1.884305         1.098962
 H         2.634901        -1.890485        -0.485633
 H         4.096420        -1.167456         1.719213
 H         4.297951         1.873547        -0.585888
 H         1.755466         1.717583        -1.238404
 H         2.496554         0.267889        -2.078608
 H         3.436862         1.532419         1.871174
