19
Iteration:  1627charge 0 multiplicity 1
 C        -0.027879        -0.230489        -0.364442
 C         1.465755        -0.114148        -0.181900
 C         2.319261        -1.436783         0.192008
 C         3.522874        -0.693986         0.953115
 O         4.526833         0.009413         0.084258
 C         3.622369         1.028668        -0.287883
 C         2.396625         0.528579        -1.229747
 C         3.030029         0.735559         1.064667
 O         1.609660         0.778532         1.058959
 H        -0.567131        -0.563887         0.576916
 H        -0.377494         0.811996        -0.559508
 H        -0.388461        -0.920971        -1.175538
 H         1.905843        -2.016466         0.945290
 H         2.470002        -2.015208        -0.882882
 H         4.130716        -1.334118         1.668558
 H         4.061743         1.885697        -0.572570
 H         2.031495         1.451786        -1.698031
 H         2.496802        -0.192334        -2.061515
 H         3.424989         1.259690         1.887914
