19
Iteration:  2831charge 0 multiplicity 1
 C        -0.078326        -0.236011        -0.449845
 C         1.473355        -0.077673        -0.207833
 C         2.276952        -1.255920         0.294572
 C         3.560098        -0.669463         0.971931
 O         4.525759        -0.242669         0.015790
 C         3.590623         0.951059        -0.287611
 C         2.462738         0.703131        -1.244287
 C         3.043300         0.740866         1.169341
 O         1.604354         0.740429         1.034237
 H        -0.550191        -0.375644         0.513554
 H        -0.551043         0.604168        -1.024205
 H        -0.289475        -1.095683        -1.194035
 H         1.752400        -1.905695         1.059498
 H         2.540958        -1.966918        -0.480601
 H         4.031635        -1.322938         1.751323
 H         4.114478         1.834930        -0.574050
 H         2.122110         1.657856        -1.489968
 H         2.790864         0.141254        -2.136372
 H         3.331530         1.366412         1.985752
