19
Iteration:  2621charge 0 multiplicity 1
 C         0.107913        -0.291354        -0.553456
 C         1.544678        -0.086722        -0.193854
 C         2.321365        -1.345586         0.395083
 C         3.539171        -0.710793         1.011225
 O         4.359124        -0.296151        -0.159421
 C         3.559851         0.950380        -0.224126
 C         2.362926         0.761034        -1.179229
 C         3.051050         0.821889         1.175087
 O         1.636940         0.825325         1.057772
 H        -0.496309        -0.969683         0.149467
 H        -0.489241         0.615534        -0.605312
 H         0.038042        -0.629976        -1.574091
 H         1.734920        -1.775564         1.242057
 H         2.631837        -2.237891        -0.221991
 H         4.000007        -1.325397         1.764649
 H         4.297590         1.681015        -0.490121
 H         1.911291         1.724612        -1.316352
 H         2.628779         0.386000        -2.196969
 H         3.278877         1.651344         1.869117
