19
Iteration:  3122charge 0 multiplicity 1
 C        -0.000038        -0.208048        -0.549330
 C         1.477302        -0.073879        -0.127850
 C         2.179531        -1.398095         0.378199
 C         3.547155        -0.701903         0.914398
 O         4.571328        -0.178573        -0.054118
 C         3.656485         0.961138        -0.224665
 C         2.434358         0.634340        -1.111100
 C         3.006630         0.782865         1.133495
 O         1.601924         0.831544         0.971298
 H        -0.316545        -1.136232        -0.060009
 H        -0.643043         0.636434        -0.362171
 H        -0.007110        -0.622591        -1.612352
 H         1.573665        -1.777542         1.261493
 H         2.092595        -2.137081        -0.404949
 H         4.092005        -1.199430         1.720338
 H         4.172963         1.864250        -0.658555
 H         1.977939         1.517925        -1.440519
 H         2.774012        -0.020214        -1.999263
 H         3.217527         1.249965         2.087087
