19
Iteration:  3294charge 0 multiplicity 1
 C         0.123101        -0.447615        -0.705036
 C         1.508290        -0.033468        -0.044211
 C         2.140649        -1.300733         0.444318
 C         3.542255        -0.743983         0.901868
 O         4.318732        -0.275204        -0.152148
 C         3.628554         1.050375        -0.250282
 C         2.434530         0.721912        -1.062712
 C         3.101308         0.810828         1.192316
 O         1.666991         0.884255         1.046854
 H        -0.408321        -1.358570        -0.340487
 H        -0.538590         0.387963        -0.716734
 H         0.335802        -0.744312        -1.791694
 H         1.633260        -1.639987         1.337902
 H         2.294067        -1.907380        -0.414109
 H         4.061318        -1.317319         1.665036
 H         4.356265         1.921076        -0.322936
 H         1.822458         1.664839        -1.458763
 H         2.691645         0.040778        -1.898485
 H         3.550526         1.299878         2.076039
