19
Iteration:   312charge 0 multiplicity 1
 C         0.013961        -0.126361        -0.391065
 C         1.540525        -0.134966        -0.217879
 C         2.314774        -1.415751         0.222239
 C         3.517242        -0.663671         0.898847
 O         4.589827        -0.061389         0.010198
 C         3.596897         1.002304        -0.277400
 C         2.366837         0.555516        -1.160723
 C         2.980151         0.745806         1.164512
 O         1.567919         0.709176         1.039899
 H        -0.436242        -0.589849         0.487987
 H        -0.414261         0.897268        -0.502271
 H        -0.330688        -0.731421        -1.272865
 H         1.686925        -1.992867         0.965853
 H         2.520818        -2.047342        -0.676827
 H         3.986055        -1.376875         1.725799
 H         4.099482         1.950541        -0.567371
 H         1.886788         1.498549        -1.568130
 H         2.610206        -0.192071        -2.049906
 H         3.225933         1.441517         1.959715
