19
Iteration:  2051
 C        -0.026988        -0.282357        -0.474484
 C         1.497323        -0.118302        -0.140554
 C         2.308770        -1.379426         0.274759
 C         3.542418        -0.676092         0.888700
 O         4.538817        -0.098256        -0.046396
 C         3.618963         0.960259        -0.286616
 C         2.417749         0.598391        -1.164850
 C         2.974559         0.798055         1.175031
 O         1.609818         0.828645         1.092352
 H        -0.664865        -0.781316         0.282741
 H        -0.521841         0.741628        -0.631027
 H        -0.390728        -0.877752        -1.377912
 H         1.687735        -1.975611         0.977920
 H         2.578249        -2.073911        -0.532038
 H         4.062808        -1.307301         1.625263
 H         4.223312         1.937101        -0.590191
 H         1.935160         1.445347        -1.663425
 H         2.656320        -0.102822        -1.952996
 H         3.384792         1.283849         2.030727
