19
Iteration:  4650
 C        -0.108522        -0.179617        -0.490139
 C         1.419902        -0.067168        -0.193510
 C         2.240835        -1.326524         0.164702
 C         3.525965        -0.724836         0.926730
 O         4.579055        -0.225815         0.074666
 C         3.713229         0.947251        -0.251779
 C         2.472527         0.637206        -1.120005
 C         3.016501         0.790979         1.173320
 O         1.582920         0.758275         1.015252
 H        -0.582971        -1.183970        -0.437209
 H        -0.610774         0.305081         0.392596
 H        -0.510537         0.279013        -1.436577
 H         1.666129        -2.060830         0.785239
 H         2.635863        -1.858413        -0.744037
 H         4.036926        -1.177823         1.826849
 H         4.382823         1.749674        -0.614158
 H         2.127224         1.683713        -1.441468
 H         2.852054         0.098081        -2.086028
 H         3.366360         1.490176         1.972799
