19
Iteration:  2151
 C         0.236797        -0.550124        -0.698375
 C         1.445980        -0.034858        -0.045915
 C         2.181628        -1.332289         0.464215
 C         3.450377        -0.710812         0.912465
 O         4.301499        -0.252895        -0.214968
 C         3.657260         1.027209        -0.325749
 C         2.360412         0.832525        -1.092517
 C         3.082676         0.785817         1.203535
 O         1.739097         0.876987         1.186566
 H        -0.507411        -1.127960        -0.187329
 H        -0.381159         0.209953        -1.243597
 H         0.517325        -1.098432        -1.628799
 H         1.729897        -1.635599         1.347389
 H         2.189130        -2.274675        -0.231046
 H         4.030152        -1.149945         1.718315
 H         4.294526         1.951346        -0.647282
 H         1.868187         1.774549        -1.350764
 H         2.480349         0.341867        -1.972139
 H         3.463779         1.591971         1.808776
