19
Iteration:  2555charge 0 multiplicity 1
 C         0.100553        -0.246704        -0.551461
 C         1.537764        -0.069177        -0.120114
 C         2.336229        -1.317749         0.405295
 C         3.506750        -0.710921         1.000235
 O         4.376844        -0.255650        -0.116584
 C         3.644450         0.982339        -0.287604
 C         2.327203         0.731623        -1.169731
 C         3.071499         0.756468         1.182763
 O         1.586085         0.769409         0.987749
 H        -0.491319        -0.503160         0.378414
 H        -0.310122         0.713626        -0.838231
 H         0.139206        -0.998763        -1.294433
 H         1.663525        -1.784259         1.120110
 H         2.730790        -2.145555        -0.277341
 H         4.034040        -1.180598         1.769315
 H         4.240534         1.853618        -0.514642
 H         1.597939         1.496040        -1.448336
 H         2.539782         0.194272        -2.109338
 H         3.470606         1.397356         1.925028
