19
Iteration:  2786
 C         0.056711        -0.181384        -0.460904
 C         1.512033        -0.092798        -0.168441
 C         2.304606        -1.337402         0.284552
 C         3.550087        -0.703853         0.990829
 O         4.488373        -0.193540         0.024367
 C         3.515771         1.002806        -0.314651
 C         2.427818         0.597471        -1.180362
 C         3.019304         0.759084         1.134419
 O         1.618450         0.795947         1.015701
 H        -0.551149        -0.894890         0.171621
 H        -0.443348         0.773689        -0.309530
 H        -0.204746        -0.420670        -1.539686
 H         1.553278        -1.975200         0.820123
 H         2.637853        -1.955977        -0.522069
 H         3.879872        -1.390870         1.759612
 H         4.098183         1.832849        -0.603193
 H         1.857656         1.319103        -1.629713
 H         2.791675        -0.112217        -1.992217
 H         3.357437         1.436219         1.947221
