19
Iteration:  3241charge 0 multiplicity 1
 C         0.000240        -0.068878        -0.388831
 C         1.541739        -0.184155        -0.236845
 C         2.305128        -1.448645         0.182891
 C         3.460662        -0.682121         1.059739
 O         4.515871        -0.142774         0.010433
 C         3.624340         0.959364        -0.258483
 C         2.373778         0.586415        -1.158069
 C         2.957188         0.860164         1.133807
 O         1.624953         0.734259         0.931453
 H        -0.451581        -0.446151         0.513900
 H        -0.219003         0.952377        -0.559865
 H        -0.327912        -0.843944        -1.153328
 H         1.829196        -2.229180         0.851542
 H         2.956826        -1.934437        -0.519184
 H         3.859239        -1.256279         1.898282
 H         4.228898         1.920744        -0.434291
 H         1.857857         1.437259        -1.547548
 H         2.856969         0.015877        -1.987551
 H         3.315260         1.428674         2.017607
