19
Iteration:  3453charge 0 multiplicity 1
 C         0.132916        -0.425338        -0.768203
 C         1.437597        -0.018493        -0.065969
 C         2.203604        -1.247557         0.449575
 C         3.503418        -0.625653         0.967360
 O         4.319918        -0.395056        -0.234569
 C         3.628603         0.992363        -0.211091
 C         2.416447         0.749860        -1.063883
 C         3.121986         0.912769         1.169745
 O         1.674444         0.769158         1.099501
 H        -0.436723        -1.266665        -0.252659
 H        -0.509726         0.441865        -0.866997
 H         0.412536        -0.776405        -1.741807
 H         1.698403        -1.816603         1.280633
 H         2.481740        -2.140284        -0.200074
 H         3.949412        -1.070687         1.915068
 H         4.341811         1.785999        -0.246296
 H         1.899160         1.688388        -1.264425
 H         2.724561         0.342574        -1.996366
 H         3.506670         1.544162         1.966128
