19
Iteration:  2679charge 0 multiplicity 1
 C        -0.077346        -0.184495        -0.477646
 C         1.437592        -0.025607        -0.145784
 C         2.272381        -1.381812         0.324237
 C         3.602756        -0.786453         0.902186
 O         4.600334        -0.061169         0.058559
 C         3.570955         1.000311        -0.289175
 C         2.383582         0.599870        -1.236789
 C         3.024019         0.616046         1.154102
 O         1.647246         0.821344         0.996396
 H        -0.586738        -0.292809         0.444613
 H        -0.315660         0.750111        -0.949880
 H        -0.238315        -1.099714        -1.075020
 H         1.740073        -1.863312         1.211005
 H         2.253727        -1.979534        -0.541917
 H         3.993827        -1.376419         1.778806
 H         4.111696         1.809457        -0.723793
 H         1.923767         1.551434        -1.623136
 H         2.649991        -0.128917        -2.095344
 H         3.264286         1.192907         2.087734
