19
Iteration:  2219charge 0 multiplicity 1
 C         0.013467        -0.162524        -0.335933
 C         1.481681        -0.119713        -0.160171
 C         2.290967        -1.354457         0.138893
 C         3.557392        -0.635970         0.942334
 O         4.565834        -0.059033         0.068093
 C         3.593499         0.934946        -0.317044
 C         2.448108         0.504047        -1.196657
 C         2.919046         0.791498         1.122117
 O         1.589901         0.745510         1.005009
 H        -0.316186        -0.655432         0.631886
 H        -0.394933         0.815199        -0.501637
 H        -0.338606        -0.727888        -1.155033
 H         1.823750        -1.866076         0.939587
 H         2.415480        -2.171601        -0.644916
 H         3.860083        -1.434853         1.650225
 H         4.036269         1.876868        -0.613893
 H         2.076788         1.326877        -1.697106
 H         2.703027        -0.189204        -2.013179
 H         3.313804         1.329602         2.077006
