19
Iteration:  1697
 C         0.264444        -0.488249        -0.715397
 C         1.547808        -0.047428        -0.038499
 C         2.202914        -1.277325         0.455475
 C         3.521667        -0.680405         0.933819
 O         4.330857        -0.232279        -0.243628
 C         3.563368         0.964676        -0.271829
 C         2.309022         0.786921        -1.036878
 C         3.107543         0.748702         1.145835
 O         1.615851         0.880754         1.097969
 H        -0.264319        -1.132930        -0.026630
 H        -0.423387         0.355102        -0.898444
 H         0.529481        -1.169180        -1.536956
 H         1.475065        -1.614018         1.347602
 H         2.421817        -2.122529        -0.129836
 H         4.154330        -1.198662         1.652950
 H         4.311218         1.883649        -0.391293
 H         1.716186         1.641403        -1.172049
 H         2.419617         0.358693        -2.007447
 H         3.623978         1.320519         1.983100
