19
Iteration:  3782charge 0 multiplicity 1
 C        -0.027703        -0.210675        -0.596108
 C         1.475330        -0.104307        -0.231222
 C         2.297069        -1.354440         0.318959
 C         3.505758        -0.678163         1.049653
 O         4.489398        -0.227907        -0.038994
 C         3.654769         0.889396        -0.283753
 C         2.369650         0.707893        -1.126242
 C         3.038280         0.785174         1.149380
 O         1.647642         0.805588         1.052313
 H        -0.543266        -0.772988         0.205294
 H        -0.440595         0.812567        -0.524273
 H        -0.075400        -0.679549        -1.639669
 H         1.606248        -1.892876         0.928757
 H         2.790389        -2.119579        -0.274677
 H         3.888101        -1.204175         1.939735
 H         4.217650         1.773301        -0.555891
 H         2.031526         1.657488        -1.449065
 H         2.509071         0.152953        -2.080457
 H         3.385341         1.385156         2.033944
