19
Iteration:  2501
 C         0.014967        -0.211649        -0.381968
 C         1.430967        -0.031622        -0.148422
 C         2.291910        -1.353662         0.223054
 C         3.581435        -0.719229         0.911816
 O         4.526635        -0.145255         0.056855
 C         3.557134         0.942517        -0.257219
 C         2.405583         0.560353        -1.253359
 C         2.992437         0.706615         1.153224
 O         1.627203         0.870814         1.013109
 H        -0.435218        -0.696467         0.552216
 H        -0.435690         0.690927        -0.743707
 H        -0.184888        -0.803507        -1.223536
 H         1.732802        -1.929031         0.940535
 H         2.623288        -2.023162        -0.648814
 H         4.032212        -1.159478         1.776950
 H         4.048807         1.859767        -0.511138
 H         1.974839         1.370551        -1.916915
 H         2.783027        -0.259189        -1.968697
 H         3.424616         1.401355         1.827331
