19
Iteration:   217charge 0 multiplicity 1
 C         0.031263        -0.317998        -0.591280
 C         1.482321        -0.106274        -0.110016
 C         2.290007        -1.305980         0.385234
 C         3.561659        -0.654280         0.946614
 O         4.410244        -0.216028        -0.188322
 C         3.596203         1.023941        -0.237235
 C         2.436139         0.690790        -1.102326
 C         3.020890         0.749316         1.198787
 O         1.623350         0.759425         1.033397
 H        -0.594539        -0.687252         0.248852
 H        -0.330300         0.702537        -0.727962
 H         0.101714        -0.921086        -1.488432
 H         1.737740        -1.844871         1.178715
 H         2.596020        -2.028868        -0.334150
 H         4.092938        -1.254382         1.643193
 H         4.285002         1.984343        -0.397742
 H         1.820346         1.555094        -1.298359
 H         2.644645         0.128353        -2.002370
 H         3.402402         1.490740         1.940740
