19
Iteration:  3650
 C         0.065255        -0.161950        -0.460712
 C         1.492976        -0.082758        -0.196310
 C         2.224507        -1.352826         0.276483
 C         3.518925        -0.668702         0.878521
 O         4.533383        -0.158742         0.033555
 C         3.640313         0.931903        -0.279018
 C         2.516878         0.596346        -1.176181
 C         2.936697         0.733008         1.119353
 O         1.543432         0.776205         1.033438
 H        -0.317139        -0.947399         0.263902
 H        -0.364729         0.737108        -0.106329
 H        -0.419036        -0.306867        -1.443875
 H         1.739873        -1.678865         1.184672
 H         2.378357        -2.121186        -0.487998
 H         3.981859        -1.344352         1.653375
 H         4.081604         1.885140        -0.443092
 H         2.029650         1.506135        -1.572169
 H         3.003300        -0.196873        -1.845043
 H         3.229426         1.422924         1.940650
