19
Iteration:  4293charge 0 multiplicity 1
 C         0.104769        -0.331311        -0.626677
 C         1.512447        -0.042153        -0.237553
 C         2.253723        -1.364273         0.424895
 C         3.497052        -0.758691         0.891695
 O         4.376347        -0.332796        -0.124144
 C         3.669189         1.033759        -0.215389
 C         2.382748         0.880482        -1.071433
 C         3.033477         0.752228         1.183692
 O         1.663616         0.816301         1.087284
 H        -0.421130        -0.248953         0.305576
 H        -0.175884         0.291277        -1.541529
 H        -0.038546        -1.363774        -1.154446
 H         1.552183        -1.829640         1.106570
 H         2.285205        -2.145768        -0.317743
 H         3.912987        -1.373158         1.715113
 H         4.353706         1.816777        -0.426128
 H         1.947587         1.926630        -1.116385
 H         2.555108         0.577111        -2.119084
 H         3.267511         1.346076         2.111252
