19
Iteration:  4020charge 0 multiplicity 1
 C         0.189467        -0.344848        -0.713316
 C         1.553627        -0.072128        -0.134031
 C         2.206658        -1.350878         0.516343
 C         3.522332        -0.705001         0.930672
 O         4.304335        -0.328184        -0.257143
 C         3.715700         0.948721        -0.240535
 C         2.440574         0.878902        -1.054189
 C         3.001074         0.857931         1.228661
 O         1.558558         0.802919         1.063141
 H        -0.256766        -1.149201        -0.079269
 H        -0.541244         0.377421        -0.547710
 H         0.188854        -0.575487        -1.809185
 H         1.618491        -1.635763         1.463125
 H         2.210782        -2.250275        -0.143938
 H         4.115748        -1.355270         1.586080
 H         4.436478         1.701281        -0.514194
 H         1.905045         1.833009        -1.265436
 H         2.918689         0.364821        -2.003611
 H         3.355796         1.316928         2.174675
