19
Iteration:  4173
 C         0.260060        -0.382922        -0.642968
 C         1.570015         0.008945        -0.108877
 C         2.207935        -1.285859         0.370947
 C         3.510246        -0.785941         0.949694
 O         4.276794        -0.345292        -0.259407
 C         3.692214         0.986640        -0.180020
 C         2.387487         0.839305        -1.058749
 C         3.005893         0.788017         1.215364
 O         1.592599         0.855357         1.063723
 H         0.033291        -1.369695        -0.190933
 H        -0.547556         0.364550        -0.481060
 H         0.372155        -0.550572        -1.799080
 H         1.588359        -1.481254         1.314620
 H         2.144530        -2.180431        -0.253637
 H         3.963727        -1.254335         1.820069
 H         4.435217         1.693957        -0.539554
 H         1.819001         1.717714        -1.208936
 H         2.607417         0.316927        -1.996214
 H         3.379932         1.340232         2.081538
