19
Iteration:  2207charge 0 multiplicity 1
 C         0.025334        -0.170699        -0.383799
 C         1.496122        -0.130930        -0.203894
 C         2.259331        -1.412484         0.306720
 C         3.516706        -0.636734         0.935585
 O         4.537081        -0.126170         0.021004
 C         3.586935         1.034793        -0.269833
 C         2.421661         0.570250        -1.218428
 C         2.999206         0.755063         1.096177
 O         1.596223         0.699788         0.991760
 H        -0.448370        -0.564310         0.555255
 H        -0.363471         0.852536        -0.380629
 H        -0.288748        -0.778702        -1.219934
 H         1.735962        -2.088533         0.900056
 H         2.704581        -1.819259        -0.688237
 H         4.019289        -0.939513         1.858758
 H         4.146341         1.956036        -0.586512
 H         1.911881         1.443425        -1.570797
 H         2.784952        -0.066107        -1.970859
 H         3.319593         1.486512         1.911539
