19
Iteration:  1214charge 0 multiplicity 1
 C        -0.036074        -0.255281        -0.421385
 C         1.492547        -0.108996        -0.157584
 C         2.399693        -1.372376         0.295689
 C         3.570527        -0.664094         0.935221
 O         4.488696        -0.145239        -0.029910
 C         3.626258         0.977071        -0.293736
 C         2.381429         0.629839        -1.207302
 C         2.948340         0.799402         1.209006
 O         1.573804         0.751548         1.014462
 H        -0.550093        -0.925984         0.304547
 H        -0.326918         0.775119        -0.474585
 H        -0.169811        -0.783018        -1.380054
 H         1.924269        -2.014187         1.012749
 H         2.699168        -1.886019        -0.729428
 H         4.170047        -1.142949         1.696511
 H         4.218228         1.852898        -0.642955
 H         1.902800         1.590738        -1.528782
 H         2.563867         0.093078        -2.195821
 H         3.291735         1.447521         2.033873
