19
Iteration:  2120
 C         0.099421        -0.416636        -0.601214
 C         1.472983        -0.052637        -0.087217
 C         2.297044        -1.254663         0.415263
 C         3.562617        -0.677538         0.986380
 O         4.424427        -0.295793        -0.261858
 C         3.640235         0.981460        -0.249186
 C         2.349953         0.781513        -1.091597
 C         3.046011         0.770977         1.220907
 O         1.574711         0.807730         1.042885
 H        -0.525862        -0.912407         0.137128
 H        -0.248335         0.579229        -0.896316
 H         0.176327        -1.135961        -1.428381
 H         1.784180        -1.731988         1.182483
 H         2.560348        -2.088826        -0.341474
 H         4.059191        -1.187041         1.817549
 H         4.211865         1.914077        -0.455619
 H         1.821209         1.671977        -1.353786
 H         2.542312         0.243046        -1.996641
 H         3.328466         1.640795         1.880211
