19
Iteration:  2084
 C        -0.068849        -0.174215        -0.341156
 C         1.524225        -0.197827        -0.209297
 C         2.320892        -1.376928         0.219053
 C         3.529445        -0.614718         0.982116
 O         4.584187        -0.092946        -0.016704
 C         3.546589         0.980642        -0.255895
 C         2.414280         0.582930        -1.225274
 C         2.957037         0.778152         1.142963
 O         1.628585         0.698099         0.993229
 H        -0.539448        -0.408926         0.627070
 H        -0.264464         0.968346        -0.528001
 H        -0.535134        -0.638363        -1.285594
 H         1.677155        -1.959221         0.907548
 H         2.798766        -1.992529        -0.585651
 H         3.920729        -1.178000         1.831280
 H         4.257654         1.875975        -0.467166
 H         1.935183         1.447973        -1.726606
 H         2.702012        -0.163137        -1.915138
 H         3.281372         1.401436         1.930547
