19
Iteration:  1080
 C         0.029968        -0.331332        -0.525098
 C         1.517933        -0.160331        -0.154178
 C         2.288157        -1.367662         0.341490
 C         3.569641        -0.674782         0.904381
 O         4.457779        -0.167889        -0.116059
 C         3.656130         1.014174        -0.239192
 C         2.406384         0.674393        -1.121673
 C         2.950736         0.838576         1.136818
 O         1.575245         0.816154         1.059201
 H        -0.286995        -0.857302         0.356077
 H        -0.491482         0.643169        -0.463398
 H        -0.305603        -0.808844        -1.438924
 H         1.862200        -2.022119         1.135838
 H         2.486394        -2.148052        -0.524106
 H         4.273309        -1.219720         1.685159
 H         4.067792         1.935280        -0.508879
 H         1.888701         1.639845        -1.429972
 H         2.835844         0.055324        -1.922068
 H         3.429315         1.272922         2.070513
