19
Iteration:  3708charge 0 multiplicity 1
 C         0.116813        -0.299779        -0.612152
 C         1.501279        -0.004426        -0.084058
 C         2.221267        -1.375086         0.338726
 C         3.439288        -0.703265         1.001480
 O         4.474093        -0.256018        -0.077307
 C         3.707230         0.945236        -0.323872
 C         2.392995         0.784181        -1.135910
 C         3.028550         0.789972         1.130678
 O         1.587526         0.757019         1.087603
 H        -0.527244        -0.466361         0.203232
 H        -0.255556         0.525737        -1.234307
 H         0.225633        -1.203542        -1.220610
 H         1.574096        -1.855501         1.127489
 H         2.423105        -2.152084        -0.403700
 H         3.858306        -1.224083         1.841515
 H         4.262155         1.866835        -0.606323
 H         1.886927         1.813495        -1.346358
 H         2.546804         0.434126        -2.101279
 H         3.448699         1.375948         1.964177
