19
Iteration:   579charge 0 multiplicity 1
 C        -0.008047        -0.345865        -0.572969
 C         1.485138        -0.097207        -0.141109
 C         2.334100        -1.330621         0.398101
 C         3.598151        -0.686374         0.989508
 O         4.435791        -0.199273        -0.171573
 C         3.643326         0.992032        -0.287226
 C         2.395955         0.670635        -1.075804
 C         3.026218         0.771270         1.168434
 O         1.607037         0.849496         1.054857
 H        -0.559036        -0.795582         0.194587
 H        -0.536790         0.523774        -0.941807
 H        -0.063910        -1.070813        -1.384062
 H         1.773131        -1.909455         1.136150
 H         2.535077        -1.997814        -0.501863
 H         3.980919        -1.257829         1.771133
 H         4.166202         1.952044        -0.675674
 H         1.789828         1.642018        -1.362809
 H         2.564013         0.158710        -2.017950
 H         3.288409         1.442713         2.067498
