19
Iteration:   418charge 0 multiplicity 1
 C         0.143118        -0.385125        -0.673594
 C         1.479993         0.008114        -0.077697
 C         2.255384        -1.314489         0.412707
 C         3.521755        -0.679533         0.935580
 O         4.410443        -0.252348        -0.211476
 C         3.621552         0.956445        -0.290081
 C         2.312384         0.764951        -1.118029
 C         3.035312         0.803396         1.168074
 O         1.668175         0.777324         1.213002
 H        -0.427326        -1.044993        -0.014436
 H        -0.449126         0.463980        -1.158568
 H         0.561994        -1.111839        -1.426154
 H         1.602797        -1.850625         1.122503
 H         2.498855        -1.985861        -0.544527
 H         4.086115        -1.298270         1.653733
 H         4.160470         1.822424        -0.532748
 H         1.896212         1.745150        -1.227514
 H         2.461267         0.341531        -2.071186
 H         3.233741         1.450811         2.060651
