19
Iteration:  2358
 C        -0.126630        -0.208077        -0.335195
 C         1.463885        -0.168655        -0.215447
 C         2.316268        -1.433342         0.186567
 C         3.583911        -0.584806         1.019502
 O         4.491456        -0.209180        -0.014579
 C         3.672660         0.998354        -0.252846
 C         2.488261         0.578127        -1.227025
 C         2.984802         0.862430         1.149237
 O         1.565401         0.766705         0.996614
 H        -0.455227        -0.558829         0.673767
 H        -0.195229         0.865671        -0.584445
 H        -0.512594        -0.792621        -1.187920
 H         1.842858        -2.104893         0.897726
 H         2.796745        -2.003641        -0.728412
 H         4.071232        -1.079673         1.834373
 H         4.248551         1.815194        -0.774607
 H         1.911006         1.584080        -1.504944
 H         2.849696         0.110494        -2.139444
 H         3.250614         1.487382         2.068354
