19
Iteration:  1522
 C         0.059555        -0.378486        -0.544294
 C         1.503237        -0.081487        -0.080905
 C         2.270077        -1.312505         0.338268
 C         3.553013        -0.673814         0.963712
 O         4.461308        -0.161926        -0.111216
 C         3.615935         1.052157        -0.286308
 C         2.330201         0.667306        -1.127828
 C         3.059320         0.777501         1.126415
 O         1.631737         0.766122         1.054552
 H        -0.465649        -0.947759         0.193597
 H        -0.449786         0.569920        -0.813928
 H         0.076776        -0.969454        -1.475418
 H         1.653865        -1.893308         1.145456
 H         2.348302        -1.978152        -0.467316
 H         4.152743        -1.266040         1.670502
 H         4.227461         2.043045        -0.398433
 H         1.705102         1.565989        -1.538509
 H         2.742931         0.049003        -1.961917
 H         3.144024         1.329989         2.048903
