19
Iteration:  2857
 C         0.201250        -0.367506        -0.632445
 C         1.507305        -0.011112        -0.052730
 C         2.164509        -1.323968         0.385038
 C         3.466020        -0.749375         0.873163
 O         4.416142        -0.301281        -0.175540
 C         3.630541         1.042346        -0.228240
 C         2.405552         0.723221        -1.027718
 C         3.102805         0.773262         1.154293
 O         1.584515         0.908223         1.077989
 H        -0.623947        -0.512727         0.097481
 H        -0.244107         0.258720        -1.426512
 H         0.318401        -1.293513        -1.119472
 H         1.636331        -1.900847         1.144880
 H         2.288095        -2.096816        -0.461296
 H         4.032592        -1.350920         1.633064
 H         4.223352         1.952609        -0.618642
 H         1.865004         1.642616        -1.499266
 H         2.700206         0.025668        -1.787990
 H         3.373852         1.303523         2.109012
