19
Iteration:  4547
 C         0.017985        -0.179448        -0.528811
 C         1.545382        -0.132717        -0.209137
 C         2.274644        -1.275210         0.252137
 C         3.526278        -0.693654         0.946151
 O         4.391410        -0.283420        -0.090708
 C         3.670134         0.995729        -0.210042
 C         2.458993         0.702854        -1.054869
 C         2.987270         0.750015         1.217225
 O         1.579002         0.747815         0.996805
 H        -0.408932        -0.329042         0.519771
 H        -0.187628         0.731199        -1.126594
 H        -0.359664        -1.048374        -1.133784
 H         1.758988        -1.859816         1.017355
 H         2.571038        -1.964134        -0.564911
 H         4.161879        -1.116604         1.743389
 H         4.340210         1.807458        -0.554824
 H         1.905037         1.732548        -1.411629
 H         2.922791         0.203233        -1.922813
 H         3.313953         1.172913         2.146909
