19
Iteration:  2911charge 0 multiplicity 1
 C         0.108726        -0.244230        -0.523364
 C         1.546108        -0.123631        -0.109261
 C         2.215341        -1.325290         0.423037
 C         3.489135        -0.652938         0.974874
 O         4.446019        -0.288968        -0.094781
 C         3.652142         0.956530        -0.270984
 C         2.434654         0.735278        -1.189196
 C         3.020529         0.779392         1.102986
 O         1.590652         0.769574         1.003293
 H        -0.622962        -0.864836        -0.012041
 H        -0.318030         0.778968        -0.593823
 H         0.056129        -0.643651        -1.507458
 H         1.652545        -1.855835         1.199813
 H         2.512293        -2.036324        -0.424420
 H         4.029424        -1.112387         1.844530
 H         4.351871         1.856983        -0.425990
 H         1.799501         1.649860        -1.187590
 H         2.481909         0.379376        -2.165079
 H         3.190671         1.425833         2.000963
