19
Iteration:   961
 C         0.164233        -0.420621        -0.613727
 C         1.490675        -0.044683        -0.113186
 C         2.337110        -1.392412         0.477959
 C         3.593549        -0.719507         1.010899
 O         4.351005        -0.273780        -0.217201
 C         3.588917         1.014059        -0.312288
 C         2.288959         0.843849        -1.076156
 C         3.072318         0.841110         1.167979
 O         1.580726         0.815697         1.054762
 H        -0.346125        -1.137398         0.050272
 H        -0.456248         0.424105        -1.050007
 H         0.440389        -0.846013        -1.609100
 H         1.732582        -1.825681         1.206009
 H         2.324865        -2.116147        -0.410901
 H         4.218587        -1.308645         1.629158
 H         4.289193         1.824550        -0.583238
 H         1.833089         1.846429        -1.072985
 H         2.563057         0.422702        -2.031788
 H         3.376000         1.360398         2.138269
