19
Iteration:  4405
 C         0.008150        -0.247230        -0.565983
 C         1.462209        -0.027648        -0.160249
 C         2.221829        -1.306686         0.174451
 C         3.511273        -0.726276         0.991382
 O         4.493102        -0.218551         0.037487
 C         3.593233         0.893849        -0.296320
 C         2.448856         0.639935        -1.092705
 C         3.090169         0.768104         1.183502
 O         1.658679         0.843475         1.074212
 H        -0.388595        -1.203771        -0.099344
 H        -0.561055         0.730265        -0.298606
 H        -0.356238        -0.484786        -1.583694
 H         1.458351        -1.963957         0.621894
 H         2.509692        -1.780337        -0.808450
 H         3.835392        -1.332438         1.894003
 H         4.057134         1.883194        -0.544676
 H         2.030680         1.599638        -1.528691
 H         2.637324        -0.005136        -1.914013
 H         3.643482         1.406266         1.838826
