19
Iteration:  1814
 C         0.097819        -0.320300        -0.519347
 C         1.512389        -0.105968        -0.136639
 C         2.308279        -1.314076         0.383636
 C         3.571076        -0.626141         0.918778
 O         4.432058        -0.214520        -0.101647
 C         3.587605         0.991974        -0.233271
 C         2.371955         0.668017        -1.125629
 C         2.994455         0.815540         1.153659
 O         1.619472         0.786136         0.996393
 H        -0.454895        -0.770210         0.296854
 H        -0.483222         0.601008        -0.700722
 H         0.022645        -1.074184        -1.326466
 H         1.737118        -1.874287         1.042001
 H         2.533052        -2.049313        -0.478785
 H         4.060294        -1.339258         1.622445
 H         4.163992         1.756262        -0.566302
 H         1.729449         1.570554        -1.397316
 H         2.655463         0.188215        -2.070347
 H         3.208334         1.315980         2.131700
