19
Iteration:  2270charge 0 multiplicity 1
 C         0.201226        -0.371098        -0.545066
 C         1.560062        -0.087688        -0.152942
 C         2.293391        -1.332426         0.450508
 C         3.520298        -0.671407         0.952779
 O         4.311214        -0.278099        -0.147526
 C         3.659938         0.994004        -0.274971
 C         2.351690         0.739575        -1.144519
 C         2.999242         0.873392         1.137015
 O         1.609315         0.773704         1.076647
 H        -0.437880        -0.697967         0.278222
 H        -0.259253         0.629212        -0.854626
 H         0.076948        -0.961436        -1.488515
 H         1.641628        -1.858025         1.171427
 H         2.522191        -2.148622        -0.353679
 H         3.951763        -1.362043         1.655722
 H         4.337300         1.798804        -0.727477
 H         1.829843         1.793706        -1.291168
 H         2.552461         0.402451        -2.129425
 H         3.341373         1.514544         1.965996
