19
Iteration:  1463charge 0 multiplicity 1
 C        -0.028424        -0.281801        -0.434283
 C         1.506978        -0.088942        -0.144395
 C         2.360664        -1.390908         0.226134
 C         3.525425        -0.640366         0.937274
 O         4.499018        -0.121081        -0.009573
 C         3.616347         0.990411        -0.301814
 C         2.399763         0.573356        -1.192516
 C         2.965346         0.835882         1.124375
 O         1.621865         0.753108         1.066652
 H        -0.488294        -0.590096         0.545011
 H        -0.500509         0.701189        -0.610769
 H        -0.197878        -0.976782        -1.267077
 H         1.767206        -1.894527         0.949826
 H         2.628389        -2.128954        -0.678792
 H         4.030122        -1.247429         1.795454
 H         3.997750         1.912846        -0.595796
 H         1.876760         1.473325        -1.370983
 H         2.725403         0.142379        -2.141923
 H         3.393972         1.301529         2.049292
