19
Iteration:  1152
 C         0.073418        -0.392199        -0.528004
 C         1.550068        -0.098752        -0.156018
 C         2.309863        -1.314020         0.428286
 C         3.575835        -0.631611         0.955682
 O         4.400632        -0.228219        -0.187365
 C         3.601704         1.042106        -0.183205
 C         2.375146         0.763232        -1.147064
 C         3.014070         0.754225         1.145108
 O         1.605278         0.739950         1.024081
 H        -0.572687        -0.564274         0.369523
 H        -0.396275         0.540083        -0.988886
 H        -0.083088        -1.032911        -1.450294
 H         1.647311        -1.975372         1.144933
 H         2.545898        -1.998778        -0.338233
 H         4.083631        -1.152641         1.776631
 H         4.234821         2.002073        -0.606305
 H         1.725370         1.626505        -1.290883
 H         2.720622         0.198918        -2.003197
 H         3.317188         1.465708         1.983904
