19
Iteration:  3340charge 0 multiplicity 1
 C         0.031180        -0.256581        -0.592528
 C         1.504537        -0.104779        -0.113969
 C         2.286167        -1.344347         0.403658
 C         3.548562        -0.614290         0.953018
 O         4.404688        -0.302204        -0.092847
 C         3.718591         0.957454        -0.263556
 C         2.399805         0.766265        -1.105313
 C         2.982438         0.783006         1.136970
 O         1.586388         0.741384         1.010769
 H        -0.606038        -0.678877         0.127422
 H        -0.434425         0.658342        -1.016947
 H         0.111253        -1.083561        -1.340214
 H         1.819098        -1.792426         1.299783
 H         2.668703        -1.977746        -0.372251
 H         3.935327        -1.222286         1.765414
 H         4.312412         1.793251        -0.728749
 H         2.024558         1.757366        -1.060061
 H         2.755363         0.549232        -2.192486
 H         3.215474         1.498021         1.976244
