19
Iteration:   180charge 0 multiplicity 1
 C        -0.054241        -0.174558        -0.330800
 C         1.485648        -0.152002        -0.237825
 C         2.334861        -1.320920         0.193021
 C         3.528997        -0.619160         0.982681
 O         4.535031        -0.113800         0.025732
 C         3.597220         0.972416        -0.272647
 C         2.468220         0.554496        -1.218740
 C         2.999886         0.755683         1.129676
 O         1.576074         0.709343         1.005400
 H        -0.363468        -0.665897         0.556450
 H        -0.438922         0.843796        -0.439120
 H        -0.670824        -0.689000        -1.081904
 H         1.761085        -1.887610         0.908025
 H         2.767586        -1.967525        -0.595322
 H         3.911794        -1.443712         1.728095
 H         4.155341         1.933974        -0.464031
 H         2.100626         1.563059        -1.621913
 H         2.750235        -0.055831        -2.183770
 H         3.241991         1.423014         1.915078
