19
Iteration:   160
 C        -0.076890        -0.282630        -0.406072
 C         1.380716        -0.023767        -0.143916
 C         2.367021        -1.382624         0.226747
 C         3.553887        -0.639842         0.911301
 O         4.600020        -0.190248         0.020163
 C         3.656702         0.977038        -0.272008
 C         2.381406         0.648789        -1.186803
 C         2.972421         0.774637         1.139548
 O         1.600019         0.791099         1.047982
 H        -0.612789        -0.813040         0.351957
 H        -0.567566         0.668019        -0.710840
 H        -0.156372        -0.848927        -1.351260
 H         1.768959        -2.090008         0.787068
 H         2.645075        -1.875636        -0.639965
 H         3.922078        -1.154235         1.850245
 H         4.555335         1.661934        -0.675895
 H         1.891439         1.503331        -1.683282
 H         2.607143        -0.178511        -1.984773
 H         3.243887         1.434015         1.911606
