19
Iteration:   919
 C        -0.046197        -0.221033        -0.390390
 C         1.481469        -0.088064        -0.105887
 C         2.291729        -1.384714         0.262921
 C         3.578669        -0.692660         0.880468
 O         4.553046        -0.102647        -0.052248
 C         3.631647         0.995715        -0.245109
 C         2.475533         0.638132        -1.228803
 C         2.927526         0.821522         1.177163
 O         1.570446         0.674411         1.041158
 H        -0.488760        -0.770707         0.513093
 H        -0.615767         0.775177        -0.495613
 H        -0.247939        -0.753822        -1.374584
 H         1.769943        -1.994279         0.997015
 H         2.744509        -2.043883        -0.602405
 H         3.995503        -1.106357         1.732481
 H         4.145644         1.883772        -0.878921
 H         1.984371         1.371206        -1.861650
 H         2.856984        -0.186410        -1.861176
 H         3.115230         1.626130         1.972374
