19
Iteration:  4069
 C         0.000843        -0.266712        -0.534288
 C         1.501240        -0.028505        -0.120557
 C         2.244821        -1.307003         0.246611
 C         3.546717        -0.712710         0.909497
 O         4.546932        -0.231701        -0.054202
 C         3.718108         0.943324        -0.230406
 C         2.447091         0.681718        -1.168801
 C         2.939503         0.770301         1.167823
 O         1.540541         0.778795         1.093174
 H        -0.719422        -0.364797         0.329086
 H        -0.322069         0.644252        -1.166301
 H        -0.072414        -1.072960        -1.227078
 H         1.546332        -1.783650         0.929690
 H         2.513429        -2.022116        -0.539849
 H         3.882922        -1.346913         1.762684
 H         4.354966         1.852303        -0.498002
 H         2.000192         1.786745        -1.202890
 H         2.512105         0.042095        -2.057402
 H         3.444907         1.320269         1.975099
