19
Iteration:   197charge 0 multiplicity 1
 C         0.071055        -0.161886        -0.362014
 C         1.568829        -0.161139        -0.232478
 C         2.322431        -1.461790         0.308834
 C         3.544642        -0.733071         0.909981
 O         4.458663        -0.134438        -0.037318
 C         3.620600         1.001201        -0.234604
 C         2.396877         0.666757        -1.212542
 C         2.904920         0.808202         1.158125
 O         1.565337         0.767021         0.978120
 H        -0.389553        -0.595155         0.603577
 H        -0.257506         0.892505        -0.428169
 H        -0.179993        -0.742096        -1.256194
 H         1.780444        -2.016217         1.120375
 H         2.571973        -2.179111        -0.543630
 H         4.111159        -0.999073         1.712629
 H         4.068659         1.918319        -0.637772
 H         1.871546         1.479549        -1.664380
 H         2.864896         0.135320        -1.942019
 H         3.337108         1.259593         2.119334
