19
Iteration:   420charge 0 multiplicity 1
 C         0.154311        -0.372431        -0.667802
 C         1.463017         0.012862        -0.079942
 C         2.263724        -1.330783         0.407304
 C         3.523857        -0.664553         0.930948
 O         4.417238        -0.240815        -0.196312
 C         3.620398         0.950649        -0.303284
 C         2.309049         0.770595        -1.108869
 C         3.026063         0.788519         1.163949
 O         1.670349         0.768056         1.205668
 H        -0.432560        -1.017457         0.027141
 H        -0.428100         0.507785        -1.101612
 H         0.524254        -1.123489        -1.424801
 H         1.550391        -1.896284         1.132683
 H         2.448257        -1.966596        -0.557702
 H         4.100953        -1.313107         1.719809
 H         4.181274         1.819003        -0.549870
 H         1.862906         1.736696        -1.266970
 H         2.519667         0.270304        -2.081879
 H         3.263776         1.466401         2.015316
