19
Iteration:  3733
 C         0.091998        -0.429806        -0.803220
 C         1.506084        -0.016603        -0.152232
 C         2.243788        -1.274995         0.448392
 C         3.558090        -0.735714         0.958206
 O         4.294140        -0.340100        -0.259100
 C         3.617077         0.993531        -0.156350
 C         2.422397         0.758977        -1.058252
 C         3.128630         0.778265         1.282228
 O         1.636583         0.917434         1.078711
 H        -0.506915        -0.614794         0.140524
 H        -0.459957         0.321057        -1.445041
 H         0.272761        -1.365647        -1.277772
 H         1.637414        -1.501292         1.403009
 H         2.251382        -2.227657        -0.152642
 H         4.071382        -1.330868         1.736524
 H         4.178996         1.914081        -0.454067
 H         1.865514         1.757200        -1.259116
 H         2.819343         0.495522        -2.087500
 H         3.476542         1.208144         2.217284
