19
Iteration:  4143charge 0 multiplicity 1
 C        -0.026310        -0.283300        -0.704734
 C         1.379410        -0.052199        -0.098503
 C         2.254353        -1.312825         0.336403
 C         3.542131        -0.731769         0.995019
 O         4.468352        -0.262730        -0.092623
 C         3.718456         0.967757        -0.224065
 C         2.380695         0.771199        -1.145651
 C         3.106649         0.780864         1.162897
 O         1.667977         0.771162         1.111260
 H        -0.582031        -0.956254        -0.140072
 H        -0.625343         0.618239        -0.950632
 H         0.172773        -0.844369        -1.577481
 H         1.612905        -1.854379         1.078774
 H         2.377503        -1.962639        -0.550363
 H         3.950979        -1.201713         1.923851
 H         4.294264         1.863837        -0.642567
 H         1.698690         1.620192        -1.113340
 H         2.558159         0.267027        -2.036435
 H         3.419193         1.412192         2.022586
