19
Iteration:  1890
 C        -0.018590        -0.361065        -0.557846
 C         1.433305        -0.077307        -0.082835
 C         2.278913        -1.331121         0.373194
 C         3.618268        -0.652974         0.896643
 O         4.449428        -0.236945        -0.087243
 C         3.610917         1.065019        -0.252109
 C         2.454914         0.664283        -1.153086
 C         3.019051         0.810132         1.178552
 O         1.622781         0.804834         1.042314
 H        -0.550830        -0.970272         0.167696
 H        -0.647167         0.505064        -0.851331
 H         0.140009        -1.055767        -1.412087
 H         1.879308        -2.001712         1.116304
 H         2.561732        -2.118344        -0.540588
 H         4.066493        -1.262849         1.717960
 H         4.202124         1.899888        -0.637218
 H         1.943885         1.689594        -1.449038
 H         2.573137         0.114955        -2.087126
 H         3.232971         1.489000         2.031775
