19
Iteration:  4741charge 0 multiplicity 1
 C         0.112675        -0.364389        -0.691476
 C         1.525601        -0.025491        -0.128148
 C         2.182395        -1.232272         0.332866
 C         3.432133        -0.688249         0.998929
 O         4.375901        -0.352433        -0.141328
 C         3.687995         0.898473        -0.181731
 C         2.413667         0.743011        -1.073454
 C         3.079203         0.842892         1.169659
 O         1.667939         0.855871         1.081079
 H         0.220355        -0.303577        -1.808544
 H        -0.187628        -1.430873        -0.463379
 H        -0.487228         0.446006        -0.280581
 H         1.505531        -1.738732         1.080196
 H         2.391264        -2.005188        -0.423988
 H         3.943044        -1.418520         1.759664
 H         4.250907         1.715769        -0.624599
 H         1.831864         1.622702        -1.228180
 H         2.544976         0.310001        -2.031908
 H         3.399289         1.435719         2.033300
