19
Iteration:   777charge 0 multiplicity 1
 C         0.013515        -0.222605        -0.394042
 C         1.497743        -0.130194        -0.166274
 C         2.373097        -1.430271         0.222655
 C         3.521176        -0.643664         0.964706
 O         4.566341        -0.109605        -0.019338
 C         3.550414         0.981989        -0.291114
 C         2.343872         0.600183        -1.189984
 C         2.957078         0.740747         1.160604
 O         1.611442         0.790369         1.045178
 H        -0.481323        -0.725510         0.394877
 H        -0.393845         0.762343        -0.525421
 H        -0.140192        -0.630624        -1.371192
 H         1.841453        -2.007603         0.905481
 H         2.804343        -1.872425        -0.768341
 H         3.889851        -1.016550         1.839875
 H         4.314423         1.762235        -0.591166
 H         1.865763         1.448437        -1.633007
 H         2.405250        -0.026607        -2.062788
 H         3.286974         1.435022         1.888181
