19
Iteration:  1420
 C         0.131854        -0.444424        -0.705938
 C         1.543994        -0.146005        -0.192247
 C         2.267771        -1.277194         0.506336
 C         3.575174        -0.625511         0.946655
 O         4.251122        -0.266161        -0.265223
 C         3.620404         1.027883        -0.272805
 C         2.361655         0.829317        -1.105726
 C         3.085702         0.785917         1.212358
 O         1.640784         0.795028         1.178854
 H        -0.379881        -1.046943         0.100805
 H        -0.432740         0.403621        -1.101865
 H         0.451462        -1.120768        -1.518987
 H         1.729151        -1.570058         1.373151
 H         2.384927        -2.317361        -0.134477
 H         4.174530        -1.178281         1.843913
 H         4.337504         1.759668        -0.467029
 H         1.834868         1.763387        -1.147861
 H         2.520802         0.255289        -2.047175
 H         3.381669         1.567006         1.979056
