19
Iteration:  4953charge 0 multiplicity 1
 C         0.052146        -0.176362        -0.518260
 C         1.495093        -0.117248        -0.210127
 C         2.233037        -1.313514         0.371265
 C         3.429257        -0.639515         1.027962
 O         4.471913        -0.250018        -0.000612
 C         3.685927         0.862191        -0.263207
 C         2.500886         0.593158        -1.205566
 C         3.020404         0.792505         1.130943
 O         1.588249         0.860502         0.968184
 H        -0.630827        -0.171821         0.322493
 H        -0.365193         0.696726        -1.117332
 H        -0.179531        -1.196272        -0.879947
 H         1.627556        -1.745803         1.167609
 H         2.638926        -2.145043        -0.248042
 H         3.840655        -1.283116         1.763288
 H         4.058234         1.881325        -0.611134
 H         2.188026         1.528440        -1.508896
 H         2.718045        -0.056269        -2.062304
 H         3.459002         1.484582         1.860381
