19
Iteration:  3298
 C         0.177297        -0.446772        -0.707789
 C         1.463660        -0.064911        -0.060292
 C         2.173896        -1.301105         0.452840
 C         3.515208        -0.735738         0.908515
 O         4.274768        -0.277771        -0.139917
 C         3.587428         1.053024        -0.279549
 C         2.450973         0.761662        -1.095322
 C         3.104088         0.776968         1.211760
 O         1.698327         0.915405         1.071093
 H        -0.295998        -1.274797        -0.259098
 H        -0.615147         0.360764        -0.829265
 H         0.442677        -0.658470        -1.749060
 H         1.583427        -1.653541         1.362473
 H         2.322309        -2.034977        -0.379015
 H         4.195780        -1.309764         1.584808
 H         4.355420         1.819417        -0.335690
 H         1.820587         1.474712        -1.409491
 H         2.713240         0.093394        -2.010580
 H         3.549725         1.245598         2.131092
