19
Iteration:  4137charge 0 multiplicity 1
 C        -0.046045        -0.233925        -0.637535
 C         1.428110        -0.054375        -0.125115
 C         2.286188        -1.353412         0.280585
 C         3.513017        -0.697696         1.001901
 O         4.485724        -0.256346        -0.066848
 C         3.719847         0.977965        -0.241759
 C         2.383439         0.716962        -1.079790
 C         3.079191         0.822634         1.136913
 O         1.657822         0.726379         1.089931
 H        -0.870721        -0.720483         0.057502
 H        -0.509928         0.710087        -0.958483
 H         0.091395        -0.864618        -1.587463
 H         1.575712        -1.825907         0.950743
 H         2.463501        -2.031226        -0.562216
 H         4.073530        -1.181130         1.804174
 H         4.243332         1.885316        -0.510455
 H         1.806276         1.675237        -1.425039
 H         2.554678         0.117250        -2.067628
 H         3.235117         1.349237         2.077741
