19
Iteration:  1841
 C         0.145228        -0.458738        -0.687505
 C         1.494607        -0.105151        -0.076991
 C         2.329786        -1.346900         0.558874
 C         3.569838        -0.617872         0.999344
 O         4.262556        -0.284017        -0.262471
 C         3.663152         0.959840        -0.255488
 C         2.393929         0.917993        -1.134448
 C         3.052318         0.849002         1.096041
 O         1.590101         0.762558         1.119663
 H        -0.641753        -0.976449        -0.073173
 H        -0.292948         0.514229        -0.916284
 H         0.311201        -1.082317        -1.566702
 H         1.582693        -1.752401         1.360811
 H         2.518067        -2.118767        -0.131832
 H         4.163647        -1.229091         1.658700
 H         4.532606         1.754191        -0.458137
 H         1.822641         1.783483        -1.288025
 H         2.598927         0.474642        -2.120536
 H         3.287810         1.372619         1.985605
