19
Iteration:  1198
 C        -0.104090        -0.228851        -0.409540
 C         1.394623        -0.199575        -0.199212
 C         2.376302        -1.362530         0.167786
 C         3.541507        -0.636567         0.967965
 O         4.613373        -0.080726         0.003036
 C         3.563792         1.013247        -0.266002
 C         2.401022         0.551318        -1.103473
 C         3.056913         0.782817         1.076047
 O         1.590553         0.775300         1.019295
 H        -0.429990        -0.668871         0.516272
 H        -0.574724         0.791127        -0.466138
 H        -0.415432        -0.786005        -1.311173
 H         1.726075        -2.090396         0.761383
 H         2.771076        -1.977144        -0.575981
 H         3.955899        -1.267258         1.862399
 H         4.121017         1.979143        -0.323752
 H         1.952495         1.418400        -1.587790
 H         2.809774        -0.152167        -1.800883
 H         3.381194         1.380554         1.927497
