19
Iteration:  4258charge 0 multiplicity 1
 C        -0.063704        -0.114114        -0.508137
 C         1.481506        -0.084901        -0.221419
 C         2.300387        -1.376388         0.239268
 C         3.525242        -0.729064         0.908337
 O         4.483399        -0.240068        -0.050006
 C         3.625057         1.070586        -0.163496
 C         2.459810         0.639250        -1.178935
 C         2.998584         0.760410         1.194711
 O         1.623908         0.730423         1.062014
 H        -0.584549        -0.087148         0.477794
 H        -0.470611         0.750657        -0.940109
 H        -0.425605        -1.065322        -0.956741
 H         1.881400        -2.019211         0.963986
 H         2.818747        -1.876046        -0.544225
 H         3.992090        -1.355782         1.641310
 H         4.243451         1.875836        -0.379679
 H         2.123283         1.587692        -1.708807
 H         2.812868        -0.147171        -1.949888
 H         3.286336         1.275134         2.124039
