19
Iteration:   526charge 0 multiplicity 1
 C         0.145085        -0.423367        -0.674669
 C         1.477781        -0.126744        -0.080956
 C         2.280797        -1.344574         0.470506
 C         3.576875        -0.574221         0.921768
 O         4.345229        -0.307477        -0.205199
 C         3.613688         0.924452        -0.259125
 C         2.313260         0.843527        -1.097239
 C         3.112519         0.827527         1.180585
 O         1.622827         0.838251         1.096913
 H        -0.510606        -0.888795         0.020796
 H        -0.387918         0.475901        -1.053776
 H         0.262948        -1.036708        -1.580787
 H         1.780486        -1.813844         1.224042
 H         2.523113        -2.146662        -0.326092
 H         3.997623        -1.203516         1.675581
 H         4.241162         1.775169        -0.428567
 H         1.753534         1.828697        -1.245500
 H         2.536989         0.383827        -2.050727
 H         3.389229         1.389855         2.131682
