19
Iteration:   185
 C        -0.016042        -0.173263        -0.330463
 C         1.485356        -0.150219        -0.280378
 C         2.347809        -1.373638         0.204390
 C         3.529204        -0.627939         0.967494
 O         4.516007        -0.097501         0.009909
 C         3.557539         0.969124        -0.271877
 C         2.494705         0.569223        -1.215782
 C         2.962848         0.734335         1.154639
 O         1.588051         0.735492         1.009999
 H        -0.340990        -0.599441         0.673307
 H        -0.320746         0.890491        -0.364030
 H        -0.598946        -0.674828        -1.116024
 H         1.668003        -1.896156         0.928720
 H         2.729463        -2.105003        -0.519253
 H         3.890760        -1.276008         1.686230
 H         4.221969         1.848358        -0.527320
 H         2.047293         1.494954        -1.501206
 H         2.739913        -0.002396        -2.057291
 H         3.280709         1.514752         1.903290
