19
Iteration:  3059charge 0 multiplicity 1
 C         0.058330        -0.268746        -0.524197
 C         1.494159        -0.124474        -0.173296
 C         2.302303        -1.343705         0.377030
 C         3.540395        -0.703581         0.976093
 O         4.461585        -0.299189        -0.091735
 C         3.663278         0.940958        -0.235357
 C         2.398965         0.736222        -1.138721
 C         2.964098         0.855456         1.177848
 O         1.584942         0.814315         0.975296
 H        -0.621245        -0.524169         0.264271
 H        -0.339522         0.707986        -0.951495
 H        -0.194250        -0.958594        -1.386147
 H         1.721232        -1.731223         1.234106
 H         2.532609        -2.034589        -0.424022
 H         4.064306        -1.274295         1.783127
 H         4.321830         1.736526        -0.447237
 H         1.906220         1.736492        -1.334572
 H         2.721111         0.340667        -2.215904
 H         3.402089         1.424235         1.991437
