19
Iteration:   282
 C         0.039783        -0.353198        -0.543367
 C         1.569381        -0.099077        -0.200891
 C         2.337000        -1.355066         0.416083
 C         3.545490        -0.681576         0.920531
 O         4.340267        -0.284334        -0.198914
 C         3.663304         1.045571        -0.230559
 C         2.424214         0.820149        -1.130834
 C         3.010120         0.771866         1.222394
 O         1.583841         0.784630         1.070730
 H        -0.610523        -0.867915         0.179445
 H        -0.531006         0.520198        -0.784150
 H        -0.161770        -1.053122        -1.341993
 H         1.728177        -1.818781         1.193665
 H         2.549206        -2.026229        -0.322340
 H         4.163677        -1.233195         1.650945
 H         4.383447         1.999680        -0.399721
 H         1.888469         1.771682        -1.386317
 H         2.774173         0.158089        -2.011445
 H         3.274661         1.534295         1.993936
