19
Iteration:  4003
 C         0.116289        -0.273593        -0.610647
 C         1.525309        -0.033344        -0.185789
 C         2.222301        -1.279789         0.473615
 C         3.548182        -0.743637         0.940948
 O         4.400197        -0.296738        -0.152160
 C         3.626556         1.030359        -0.206794
 C         2.425549         0.728142        -1.156504
 C         3.021206         0.672709         1.176704
 O         1.587943         0.783967         1.018033
 H        -0.286436        -1.239821        -0.323735
 H        -0.443098         0.706123        -0.403635
 H         0.219826        -0.306084        -1.700935
 H         1.714156        -1.394260         1.408343
 H         2.306103        -2.181546        -0.113369
 H         4.217921        -1.147352         1.715026
 H         4.213992         2.006656        -0.230251
 H         1.967046         1.743975        -1.172672
 H         2.587940         0.218630        -2.046775
 H         3.182740         1.355672         1.994414
