19
Iteration:    59charge 0 multiplicity 1
 C         0.001575        -0.309460        -0.468851
 C         1.408556        -0.126653        -0.112165
 C         2.288178        -1.317682         0.254298
 C         3.537210        -0.643267         0.950434
 O         4.533266        -0.200525        -0.017781
 C         3.629941         0.934542        -0.345780
 C         2.455432         0.660623        -1.207660
 C         2.974754         0.808988         1.140708
 O         1.608149         0.821565         1.123592
 H        -0.570845        -0.803971         0.329014
 H        -0.469232         0.637325        -0.671029
 H        -0.092693        -0.966748        -1.324509
 H         1.800956        -2.030812         0.836639
 H         2.633470        -1.813682        -0.699064
 H         4.113972        -1.338400         1.680885
 H         4.241318         1.986930        -0.391979
 H         1.916628         1.560894        -1.633521
 H         2.510495        -0.015922        -2.036756
 H         3.424142         1.539548         1.856210
