19
Iteration:  4353
 C         0.037222        -0.153842        -0.567368
 C         1.486873        -0.083791        -0.204946
 C         2.244702        -1.382787         0.391004
 C         3.482689        -0.734250         0.951341
 O         4.401588        -0.211922        -0.092890
 C         3.674679         0.987596        -0.195657
 C         2.443442         0.698982        -1.165067
 C         3.080038         0.742589         1.189658
 O         1.635193         0.744799         0.999333
 H        -0.546620        -0.893033         0.086546
 H        -0.428611         0.810918        -0.383839
 H        -0.049694        -0.551187        -1.563702
 H         1.595588        -1.741224         1.234660
 H         2.509532        -2.152676        -0.378112
 H         3.985588        -1.324836         1.720419
 H         4.156573         2.022379        -0.412813
 H         1.929155         1.599525        -1.336322
 H         2.729116         0.254699        -2.122532
 H         3.453421         1.326831         2.026221
