19
Iteration:  1956
 C        -0.006722        -0.304552        -0.498531
 C         1.443664        -0.114862        -0.157441
 C         2.310753        -1.296013         0.331783
 C         3.559105        -0.643406         0.906459
 O         4.542450        -0.194695        -0.090319
 C         3.612911         1.029103        -0.256112
 C         2.415317         0.589633        -1.144249
 C         2.990784         0.802691         1.111651
 O         1.572349         0.772831         1.096515
 H        -0.575407        -0.688584         0.308461
 H        -0.429959         0.699654        -0.636624
 H        -0.250529        -0.942309        -1.345329
 H         1.894665        -1.971703         1.035961
 H         2.651000        -1.971308        -0.585415
 H         4.081883        -1.260416         1.633424
 H         4.090987         1.955373        -0.320238
 H         2.005969         1.589324        -1.500948
 H         2.721949         0.054717        -2.019281
 H         3.380677         1.310069         1.973096
