19
Iteration:  3041
 C         0.034310        -0.382768        -0.738947
 C         1.481042         0.013737        -0.102121
 C         2.206449        -1.301553         0.499360
 C         3.542465        -0.733463         0.970696
 O         4.421011        -0.260971        -0.167948
 C         3.636380         0.972457        -0.231081
 C         2.399000         0.759082        -1.098447
 C         3.108113         0.699540         1.176509
 O         1.628315         0.885500         1.043034
 H        -0.526831        -0.636974         0.175324
 H        -0.511637         0.317200        -1.439928
 H         0.305370        -1.255472        -1.283898
 H         1.597097        -1.577009         1.361390
 H         2.269285        -2.204480        -0.190515
 H         4.318649        -1.282102         1.571546
 H         4.208505         1.891342        -0.553940
 H         2.068647         1.776894        -1.391449
 H         2.529267         0.173028        -1.936345
 H         3.375705         1.259722         2.138500
