19
Iteration:  4417
 C        -0.001531        -0.305967        -0.631313
 C         1.455712        -0.013426        -0.127420
 C         2.215190        -1.306888         0.240682
 C         3.521725        -0.703191         0.984943
 O         4.493726        -0.304659        -0.068196
 C         3.681283         0.942105        -0.194633
 C         2.366681         0.704636        -1.132761
 C         3.066394         0.748502         1.191311
 O         1.629322         0.877119         1.073969
 H        -0.557349        -1.063688         0.012959
 H        -0.668035         0.594663        -0.517763
 H         0.228234        -0.501821        -1.669560
 H         1.717012        -1.873844         1.042712
 H         2.514388        -2.001867        -0.579378
 H         4.103382        -1.291811         1.714945
 H         4.332603         1.805352        -0.532455
 H         1.994178         1.689308        -1.404787
 H         2.600686         0.145475        -1.994428
 H         3.417793         1.325292         2.033756
