19
Iteration:  1693charge 0 multiplicity 1
 C         0.267895        -0.480267        -0.673243
 C         1.542901        -0.063309        -0.066454
 C         2.209346        -1.262808         0.455804
 C         3.512196        -0.722998         0.960338
 O         4.329780        -0.241258        -0.233317
 C         3.586990         1.025846        -0.298506
 C         2.284019         0.763204        -1.054512
 C         3.086407         0.788859         1.166471
 O         1.649028         0.852028         1.084896
 H        -0.302517        -1.102963         0.048594
 H        -0.358350         0.424704        -0.911095
 H         0.548961        -1.071995        -1.591514
 H         1.597481        -1.626464         1.230140
 H         2.329125        -2.245929        -0.218104
 H         4.074803        -1.296318         1.767777
 H         4.096986         1.899667        -0.456171
 H         1.754224         1.751834        -1.170957
 H         2.510911         0.373868        -2.064519
 H         3.524711         1.318026         2.023673
