19
Iteration:  4274
 C         0.075547        -0.196778        -0.453165
 C         1.542575        -0.070423        -0.145332
 C         2.247841        -1.314137         0.280010
 C         3.529935        -0.698737         0.956632
 O         4.420329        -0.216336        -0.141616
 C         3.668883         0.912981        -0.205978
 C         2.501380         0.783593        -1.133877
 C         2.964251         0.690297         1.216110
 O         1.550427         0.712058         0.964724
 H        -0.448103         0.036025         0.482215
 H        -0.156154         0.638401        -1.266544
 H        -0.110882        -1.168861        -0.951689
 H         1.469964        -1.719009         1.035896
 H         2.344362        -2.140712        -0.497853
 H         4.092273        -1.261648         1.760204
 H         4.169865         1.949815        -0.422307
 H         1.866355         1.598800        -1.383859
 H         2.867506         0.352668        -2.011680
 H         3.324480         1.270790         2.073403
