19
Iteration:  4014charge 0 multiplicity 1
 C         0.187464        -0.299582        -0.687462
 C         1.552918        -0.035948        -0.113533
 C         2.232504        -1.311528         0.553100
 C         3.563046        -0.746768         0.884019
 O         4.335925        -0.327503        -0.228135
 C         3.659788         0.985943        -0.216552
 C         2.484587         0.847290        -1.060813
 C         2.953595         0.807190         1.197038
 O         1.549810         0.769265         1.023758
 H        -0.187893        -1.180458        -0.150735
 H        -0.659972         0.440117        -0.451324
 H         0.172471        -0.536235        -1.743654
 H         1.582740        -1.492613         1.382899
 H         2.231268        -2.230524        -0.020216
 H         4.041892        -1.358669         1.673556
 H         4.417544         1.696819        -0.652417
 H         1.884866         1.731933        -1.386421
 H         2.712079         0.446477        -2.000158
 H         3.341035         1.230095         2.109250
