19
Iteration:  4323charge 0 multiplicity 1
 C         0.160586        -0.321125        -0.762933
 C         1.441732         0.063327        -0.061844
 C         2.272309        -1.256191         0.376292
 C         3.514213        -0.730471         0.920632
 O         4.370986        -0.341017        -0.213181
 C         3.669927         0.914271        -0.248246
 C         2.382258         0.722467        -1.035840
 C         3.119465         0.784714         1.215517
 O         1.548133         0.830559         1.196542
 H        -0.547601        -0.687121        -0.015522
 H        -0.296558         0.455862        -1.302633
 H         0.571101        -1.100190        -1.403539
 H         1.632443        -1.870442         0.998085
 H         2.467726        -1.778263        -0.551045
 H         3.922986        -1.389616         1.654613
 H         4.224329         1.810701        -0.470800
 H         1.976987         1.768447        -1.274961
 H         2.443217         0.148503        -2.056954
 H         3.486282         1.460029         2.017344
