19
Iteration:  4460charge 0 multiplicity 1
 C         0.169057        -0.212521        -0.699415
 C         1.589184        -0.149140        -0.240075
 C         2.235726        -1.340963         0.458632
 C         3.502319        -0.718337         0.997172
 O         4.236731        -0.310268        -0.216652
 C         3.634721         1.007592        -0.182480
 C         2.373009         0.819721        -1.132555
 C         3.058606         0.799965         1.278143
 O         1.712599         0.740182         1.080537
 H        -0.556763        -0.154801         0.186426
 H        -0.251314         0.555196        -1.420771
 H         0.046075        -1.142601        -1.291801
 H         1.464301        -1.729427         1.146993
 H         2.533005        -2.213695        -0.177944
 H         4.036430        -1.268020         1.800985
 H         4.274000         1.916258        -0.286485
 H         1.588174         1.645031        -1.387315
 H         2.754583         0.470479        -2.083708
 H         3.487449         1.336556         2.100956
