19
Iteration:  3849
 C         0.060874        -0.242642        -0.534550
 C         1.510681        -0.071265        -0.141450
 C         2.305528        -1.300745         0.364863
 C         3.498168        -0.671051         0.978926
 O         4.437499        -0.310682        -0.090730
 C         3.646762         0.905576        -0.240637
 C         2.467630         0.745788        -1.123277
 C         2.951281         0.799215         1.154972
 O         1.587473         0.785515         0.979808
 H        -0.629264        -0.802850         0.126622
 H        -0.420870         0.805839        -0.690026
 H         0.052870        -0.702794        -1.606218
 H         1.689195        -1.666380         1.174168
 H         2.468881        -2.186948        -0.227340
 H         4.127197        -1.311093         1.582092
 H         4.299384         1.749988        -0.586726
 H         2.121924         1.760091        -1.440337
 H         2.718078         0.241159        -1.997627
 H         3.198027         1.308765         2.097979
