19
Iteration:  4838charge 0 multiplicity 1
 C         0.093812        -0.313771        -0.679695
 C         1.463158        -0.034114        -0.122831
 C         2.261496        -1.244226         0.362388
 C         3.449507        -0.672310         0.992392
 O         4.430074        -0.348119        -0.048272
 C         3.661414         0.937098        -0.270170
 C         2.334581         0.622686        -1.155104
 C         3.072459         0.788801         1.174015
 O         1.670410         0.919831         1.058918
 H        -0.512172         0.575900        -0.565236
 H         0.342083        -0.557795        -1.726182
 H        -0.276687        -1.153350        -0.116776
 H         1.662566        -1.667106         1.221350
 H         2.337584        -1.895232        -0.509310
 H         3.992409        -1.136117         1.882654
 H         4.371214         1.703494        -0.532286
 H         1.995813         1.689641        -1.429361
 H         2.534119        -0.099942        -1.981206
 H         3.225053         1.160272         2.140240
