19
Iteration:  3184charge 0 multiplicity 1
 C         0.139566        -0.400491        -0.675681
 C         1.516773        -0.103586        -0.112919
 C         2.192377        -1.288009         0.436016
 C         3.510686        -0.702734         0.946527
 O         4.379313        -0.268422        -0.138606
 C         3.663157         0.958470        -0.279755
 C         2.411519         0.785781        -1.097863
 C         3.030781         0.765136         1.128727
 O         1.630129         0.869501         1.098231
 H        -0.614464        -0.464820         0.184915
 H        -0.224093         0.391372        -1.301902
 H         0.168248        -1.224854        -1.378747
 H         1.707012        -1.765848         1.289154
 H         2.350309        -2.101339        -0.311914
 H         3.929830        -1.198976         1.826054
 H         4.333757         1.843120        -0.495628
 H         1.833937         1.801431        -1.094687
 H         2.662943         0.549419        -2.075977
 H         3.439248         1.153400         2.027514
