19
Iteration:  2125
 C         0.137684        -0.458734        -0.644347
 C         1.448457        -0.053651        -0.106753
 C         2.293804        -1.209592         0.429566
 C         3.556211        -0.687448         1.002574
 O         4.410699        -0.312303        -0.287986
 C         3.656446         0.996808        -0.244157
 C         2.329778         0.768019        -1.064942
 C         3.101244         0.775961         1.230973
 O         1.572713         0.841635         1.083412
 H        -0.551432        -0.952185         0.080887
 H        -0.446869         0.388229        -1.091613
 H         0.095898        -1.108946        -1.533221
 H         1.695220        -1.769705         1.275366
 H         2.496766        -1.958323        -0.274658
 H         4.115260        -1.304885         1.733954
 H         4.170226         1.930561        -0.466069
 H         1.757041         1.697316        -1.370489
 H         2.586689         0.263852        -2.081794
 H         3.380856         1.544124         1.930094
