19
Iteration:  1464charge 0 multiplicity 1
 C        -0.042301        -0.275555        -0.423725
 C         1.510381        -0.083411        -0.150398
 C         2.369807        -1.388239         0.227825
 C         3.521967        -0.637045         0.930839
 O         4.498479        -0.119747        -0.001302
 C         3.613236         0.984918        -0.305277
 C         2.398994         0.573540        -1.193428
 C         2.972036         0.836007         1.125717
 O         1.622674         0.741192         1.058433
 H        -0.495516        -0.594175         0.543694
 H        -0.481584         0.712052        -0.606269
 H        -0.197448        -0.973474        -1.253822
 H         1.757754        -1.905516         0.932877
 H         2.647039        -2.120292        -0.675106
 H         4.036054        -1.241404         1.803333
 H         3.998319         1.911197        -0.588989
 H         1.878862         1.497162        -1.364440
 H         2.756079         0.109727        -2.124522
 H         3.352642         1.316239         2.045051
