19
Iteration:  1213
 C        -0.049580        -0.254775        -0.426270
 C         1.504247        -0.106593        -0.155476
 C         2.397429        -1.380607         0.287527
 C         3.568750        -0.659180         0.931875
 O         4.499859        -0.140044        -0.028833
 C         3.623894         0.971892        -0.283705
 C         2.378766         0.625582        -1.207769
 C         2.944625         0.803119         1.206695
 O         1.580218         0.756470         1.016821
 H        -0.555923        -0.898918         0.308010
 H        -0.350225         0.760571        -0.460624
 H        -0.229272        -0.774315        -1.356380
 H         1.954327        -2.014316         0.996859
 H         2.715539        -1.890794        -0.736109
 H         4.144593        -1.170952         1.738093
 H         4.159549         1.811387        -0.663366
 H         1.891301         1.578780        -1.538276
 H         2.601562         0.088307        -2.185512
 H         3.286672         1.429844         2.022614
