19
Iteration:  1264charge 0 multiplicity 1
 C         0.092112        -0.528533        -0.763029
 C         1.528085        -0.034838        -0.017320
 C         2.266789        -1.290726         0.502293
 C         3.563379        -0.698371         0.950085
 O         4.327559        -0.231675        -0.266331
 C         3.603516         1.010552        -0.255046
 C         2.352959         0.828828        -1.044568
 C         3.070512         0.744666         1.191486
 O         1.649225         0.869498         1.102386
 H        -0.422194        -1.268272        -0.152768
 H        -0.359294         0.460769        -1.035980
 H         0.330634        -1.220535        -1.604106
 H         1.710828        -1.628036         1.455178
 H         2.418484        -1.966925        -0.300263
 H         4.307977        -1.365786         1.607905
 H         4.298502         1.847159        -0.611533
 H         1.670461         1.609105        -1.329984
 H         2.565066         0.420576        -1.999048
 H         3.435792         1.308905         1.993023
