19
Iteration:   742charge 0 multiplicity 1
 C        -0.111839        -0.305592        -0.356382
 C         1.480957        -0.054303        -0.197847
 C         2.321360        -1.361609         0.237882
 C         3.564467        -0.645995         0.945016
 O         4.545714        -0.132466        -0.062115
 C         3.646097         1.001840        -0.266635
 C         2.459126         0.630772        -1.226303
 C         2.959127         0.762975         1.181756
 O         1.596451         0.742589         1.017683
 H        -0.581764        -0.690697         0.529782
 H        -0.600026         0.684854        -0.567219
 H        -0.336648        -1.031211        -1.157972
 H         1.710574        -1.924771         0.984367
 H         2.578452        -2.139797        -0.497462
 H         3.970534        -1.139944         1.775371
 H         4.286681         1.965277        -0.484343
 H         1.965112         1.500540        -1.556343
 H         2.895897         0.020651        -1.932746
 H         3.325712         1.433339         1.968212
