19
Iteration:  4013charge 0 multiplicity 1
 C         0.180268        -0.294850        -0.677886
 C         1.551509        -0.031344        -0.115113
 C         2.234836        -1.305344         0.552608
 C         3.565213        -0.752581         0.881877
 O         4.340560        -0.327282        -0.222048
 C         3.653200         0.993932        -0.213529
 C         2.488389         0.836831        -1.065669
 C         2.952922         0.794665         1.191764
 O         1.550799         0.767026         1.020291
 H        -0.167775        -1.172954        -0.193322
 H        -0.629700         0.448290        -0.451428
 H         0.177107        -0.534243        -1.742198
 H         1.580588        -1.468284         1.385906
 H         2.244858        -2.224775        -0.015662
 H         4.050183        -1.340419         1.683507
 H         4.403925         1.711449        -0.643415
 H         1.876537         1.742638        -1.386661
 H         2.674688         0.442786        -2.000991
 H         3.326498         1.237495         2.104268
