19
Iteration:   385
 C         0.178246        -0.437611        -0.604401
 C         1.557518        -0.052401        -0.136043
 C         2.221179        -1.363410         0.500957
 C         3.538272        -0.731251         0.939607
 O         4.300733        -0.273134        -0.303920
 C         3.653465         1.019630        -0.193128
 C         2.362818         0.912714        -1.068335
 C         3.015865         0.768695         1.175886
 O         1.647593         0.823185         1.037871
 H        -0.285710        -1.045500         0.183929
 H        -0.579067         0.321665        -0.973967
 H         0.323138        -1.075332        -1.526709
 H         1.641651        -1.767853         1.337014
 H         2.539076        -2.246635        -0.219477
 H         4.276052        -1.113870         1.636731
 H         4.262985         1.846398        -0.385078
 H         1.877794         1.863019        -1.178082
 H         2.613642         0.550615        -2.015870
 H         3.142488         1.247339         2.181219
