19
Iteration:  1978
 C         0.207920        -0.421408        -0.626384
 C         1.483142         0.002019        -0.110957
 C         2.226488        -1.320557         0.448209
 C         3.542614        -0.707947         0.949375
 O         4.362932        -0.185694        -0.171736
 C         3.620493         0.995644        -0.309956
 C         2.293961         0.775797        -1.116301
 C         3.045917         0.778554         1.190425
 O         1.665449         0.779238         1.100600
 H        -0.419183        -1.000897        -0.020176
 H        -0.422589         0.407880        -0.920060
 H         0.433139        -1.086260        -1.453783
 H         1.717619        -1.700111         1.295734
 H         2.339136        -2.230121        -0.303385
 H         4.124097        -1.301164         1.655191
 H         4.317333         1.715906        -0.643256
 H         1.913978         1.773169        -1.491988
 H         2.466198         0.133112        -1.957430
 H         3.344539         1.347932         2.050549
