19
Iteration:  3422charge 0 multiplicity 1
 C         0.154796        -0.271438        -0.578328
 C         1.535732        -0.046643        -0.124908
 C         2.298392        -1.325453         0.353742
 C         3.498909        -0.707108         0.999092
 O         4.403397        -0.235293        -0.067074
 C         3.636210         0.922040        -0.331404
 C         2.344354         0.712582        -1.146309
 C         3.002692         0.763683         1.227249
 O         1.619409         0.796552         0.970023
 H        -0.565724        -0.620836         0.263031
 H        -0.337065         0.647907        -0.887670
 H        -0.000249        -0.940455        -1.458615
 H         1.686072        -1.697973         1.268749
 H         2.629819        -2.207636        -0.324886
 H         3.953016        -1.295959         1.841595
 H         4.243716         1.817946        -0.506959
 H         1.880062         1.773114        -1.216975
 H         2.408544         0.376373        -2.113109
 H         3.402206         1.368135         2.058797
