19
Iteration:  3064
 C         0.056058        -0.240946        -0.498217
 C         1.531251        -0.161266        -0.162661
 C         2.318766        -1.326013         0.349770
 C         3.455687        -0.673759         1.003821
 O         4.464731        -0.283799        -0.080487
 C         3.659847         0.925920        -0.229390
 C         2.417812         0.718481        -1.171331
 C         2.983659         0.861841         1.128317
 O         1.566091         0.780650         0.977717
 H        -0.528553        -0.507890         0.434250
 H        -0.218522         0.783329        -0.779910
 H        -0.180526        -0.837914        -1.346749
 H         1.693112        -1.849815         1.090782
 H         2.598203        -2.030887        -0.474629
 H         4.070769        -1.237419         1.713249
 H         4.285592         1.842722        -0.522403
 H         2.049931         1.730489        -1.327518
 H         2.630358         0.296294        -2.073968
 H         3.344836         1.379704         2.049310
