19
Iteration:  4312charge 0 multiplicity 1
 C         0.038750        -0.372461        -0.775064
 C         1.495063         0.007683        -0.045580
 C         2.199515        -1.246108         0.321971
 C         3.508315        -0.692802         1.017674
 O         4.350923        -0.317767        -0.215420
 C         3.663567         0.925165        -0.215057
 C         2.390018         0.815926        -1.043605
 C         3.180268         0.757796         1.216459
 O         1.624039         0.827722         1.133801
 H        -0.820138        -0.727604        -0.172885
 H        -0.259036         0.235980        -1.536880
 H         0.197584        -1.321758        -1.339625
 H         1.691552        -1.831914         1.088738
 H         2.613473        -1.945899        -0.371957
 H         4.096850        -1.319554         1.640932
 H         4.424607         1.642648        -0.386813
 H         1.966546         1.886793        -1.105032
 H         2.487058         0.324685        -2.121713
 H         3.608798         1.333571         2.058795
