19
Iteration:  1344charge 0 multiplicity 1
 C        -0.009958        -0.242803        -0.338115
 C         1.468150        -0.145662        -0.169592
 C         2.266848        -1.367964         0.213540
 C         3.528485        -0.636643         0.891618
 O         4.538330        -0.042839         0.051324
 C         3.608924         0.994987        -0.250331
 C         2.441883         0.580129        -1.220040
 C         2.956347         0.781714         1.067685
 O         1.585974         0.728276         1.016795
 H        -0.354132        -0.499223         0.668973
 H        -0.351374         0.775483        -0.347703
 H        -0.190597        -0.799455        -1.204767
 H         1.826317        -1.967351         0.912720
 H         2.739507        -2.039342        -0.623661
 H         4.204934        -1.372243         1.533451
 H         4.170572         1.752082        -0.611716
 H         2.079020         1.481332        -1.741499
 H         2.742149        -0.261020        -1.908200
 H         3.330099         1.179056         2.059844
