19
Iteration:  1101
 C         0.088880        -0.447816        -0.605368
 C         1.475325        -0.008375        -0.081273
 C         2.270973        -1.280835         0.419981
 C         3.557257        -0.617877         0.972093
 O         4.399008        -0.253698        -0.194369
 C         3.614251         1.025557        -0.272200
 C         2.339962         0.776773        -1.147676
 C         3.093662         0.751380         1.202428
 O         1.637425         0.761823         1.087623
 H        -0.501319        -1.182084        -0.128921
 H        -0.490422         0.372287        -1.050546
 H         0.433088        -0.865939        -1.546437
 H         1.706994        -1.798939         1.262196
 H         2.393696        -2.160815        -0.312674
 H         4.074547        -1.409155         1.696107
 H         4.118783         1.923305        -0.553746
 H         1.758869         1.732509        -1.308863
 H         2.531551         0.131844        -2.006285
 H         3.425004         1.520005         1.968260
