19
Iteration:   661charge 0 multiplicity 1
 C         0.115332        -0.352365        -0.554237
 C         1.512247        -0.042982        -0.146124
 C         2.244955        -1.375665         0.465805
 C         3.571394        -0.661850         0.868703
 O         4.407207        -0.170844        -0.173195
 C         3.623860         0.974324        -0.256090
 C         2.355975         0.667750        -1.151642
 C         3.056425         0.826211         1.192613
 O         1.582739         0.784874         1.082288
 H        -0.498727        -0.899994         0.251555
 H        -0.441986         0.572632        -0.832225
 H         0.251717        -0.837830        -1.560351
 H         1.662036        -1.849263         1.303921
 H         2.562161        -2.073859        -0.247726
 H         3.966494        -1.339617         1.730535
 H         4.169625         1.814521        -0.595704
 H         1.957907         1.651768        -1.340878
 H         2.552402         0.170040        -2.144046
 H         3.531910         1.320435         2.024309
