19
Iteration:  2246charge 0 multiplicity 1
 C        -0.074616        -0.280710        -0.459759
 C         1.409932        -0.067630        -0.134726
 C         2.278721        -1.354996         0.316326
 C         3.627061        -0.634878         0.960099
 O         4.568064        -0.181123        -0.050448
 C         3.635524         1.003840        -0.238233
 C         2.425749         0.610097        -1.179059
 C         2.981986         0.742949         1.122955
 O         1.618727         0.819631         0.988527
 H        -0.459301        -0.688376         0.464459
 H        -0.739720         0.608624        -0.688003
 H        -0.290650        -0.994595        -1.317177
 H         1.812540        -2.122897         1.043292
 H         2.510695        -1.945586        -0.555632
 H         3.966172        -1.284149         1.756103
 H         4.101598         1.999689        -0.428474
 H         1.952060         1.544619        -1.724392
 H         2.780450        -0.043038        -2.018760
 H         3.288626         1.265576         1.972313
