19
Iteration:  3634charge 0 multiplicity 1
 C        -0.017989        -0.271755        -0.565314
 C         1.484940        -0.025809        -0.171987
 C         2.274581        -1.248877         0.369458
 C         3.550349        -0.739911         0.966027
 O         4.515441        -0.237977        -0.066097
 C         3.687545         0.969540        -0.216048
 C         2.393545         0.638076        -1.193303
 C         2.997730         0.814749         1.219060
 O         1.584143         0.758320         1.019032
 H        -0.526307        -1.124045        -0.124321
 H        -0.545457         0.739222        -0.412753
 H         0.125334        -0.432960        -1.637335
 H         1.574978        -1.729595         1.087495
 H         2.410256        -2.075573        -0.349867
 H         3.988298        -1.353928         1.739222
 H         4.308549         1.817415        -0.640883
 H         2.006511         1.590475        -1.616226
 H         2.505231         0.074528        -2.095958
 H         3.430451         1.311755         2.076764
