19
Iteration:   261
 C         0.245914        -0.456231        -0.643058
 C         1.512672        -0.040990        -0.062841
 C         2.234872        -1.286843         0.435507
 C         3.523244        -0.670124         0.941419
 O         4.326444        -0.274482        -0.228896
 C         3.568927         0.934035        -0.255819
 C         2.314384         0.831847        -1.023712
 C         3.081701         0.771100         1.134444
 O         1.657775         0.846736         1.072733
 H        -0.465743        -1.102974        -0.054027
 H        -0.337144         0.329542        -1.088050
 H         0.629005        -1.077709        -1.440428
 H         1.536800        -1.774901         1.102134
 H         2.294827        -1.876544        -0.409367
 H         4.025186        -1.214684         1.665549
 H         4.308391         1.778392        -0.578142
 H         1.923600         1.840728        -0.931868
 H         2.506601         0.500333        -2.023353
 H         3.364717         1.225299         2.108791
