19
Iteration:  4283
 C         0.167127        -0.246708        -0.556900
 C         1.587513        -0.066106        -0.195240
 C         2.207477        -1.368071         0.342073
 C         3.480488        -0.762611         0.917766
 O         4.402528        -0.270447        -0.132673
 C         3.653979         0.978834        -0.203089
 C         2.441161         0.842877        -1.123109
 C         2.997840         0.740434         1.182818
 O         1.548819         0.778014         1.028303
 H        -0.422444        -0.107470         0.352194
 H        -0.368706         0.506628        -1.238040
 H        -0.045032        -1.342732        -0.759220
 H         1.689113        -1.615804         1.271811
 H         2.493205        -2.199415        -0.299129
 H         4.085352        -1.384119         1.618489
 H         4.351008         1.808226        -0.336465
 H         1.883681         1.792097        -1.084207
 H         2.563143         0.494143        -2.128042
 H         3.436798         1.275456         2.057597
