19
Iteration:   982charge 0 multiplicity 1
 C         0.174166        -0.502499        -0.644648
 C         1.520606        -0.112732        -0.192459
 C         2.256144        -1.245892         0.508603
 C         3.506157        -0.627344         0.917658
 O         4.284897        -0.295224        -0.326952
 C         3.634724         1.050497        -0.248196
 C         2.386017         0.838289        -1.075356
 C         3.029385         0.811959         1.227516
 O         1.640713         0.749363         1.152672
 H        -0.350750        -1.028901         0.117347
 H        -0.321938         0.428646        -1.031747
 H         0.258180        -1.130290        -1.549223
 H         1.767420        -1.642218         1.334999
 H         2.383810        -2.142832        -0.180292
 H         4.054457        -0.987889         1.789821
 H         4.412591         1.694044        -0.364369
 H         1.958258         1.861773        -1.095695
 H         2.743466         0.428490        -2.006020
 H         3.507400         1.478599         2.015097
