19
Iteration:  2605
 C         0.153526        -0.434413        -0.683930
 C         1.497018        -0.025854        -0.098108
 C         2.185899        -1.240621         0.508670
 C         3.548965        -0.673150         0.942280
 O         4.384782        -0.319163        -0.186117
 C         3.662939         0.941113        -0.316514
 C         2.332002         0.816933        -1.049482
 C         3.078067         0.741062         1.172594
 O         1.640050         0.849663         1.048548
 H        -0.277021        -1.196627        -0.074951
 H        -0.544380         0.456571        -0.677791
 H         0.447034        -0.903209        -1.660976
 H         1.531761        -1.502194         1.345423
 H         2.128657        -2.045540        -0.215496
 H         4.212023        -1.251302         1.660211
 H         4.221498         1.885113        -0.588566
 H         1.810539         1.815839        -1.180572
 H         2.407637         0.373422        -2.048561
 H         3.481460         1.154386         2.098297
