19
Iteration:  1149charge 0 multiplicity 1
 C         0.079480        -0.403982        -0.562540
 C         1.516368        -0.117030        -0.110826
 C         2.299561        -1.317915         0.467380
 C         3.573426        -0.627072         0.958766
 O         4.383830        -0.238617        -0.205490
 C         3.606139         1.048958        -0.198010
 C         2.376169         0.791559        -1.138766
 C         3.042117         0.780415         1.151760
 O         1.628666         0.739842         1.009744
 H        -0.599237        -0.635876         0.330763
 H        -0.349975         0.507211        -1.002386
 H        -0.023778        -1.078369        -1.440093
 H         1.638753        -1.954445         1.047452
 H         2.569562        -2.011084        -0.441029
 H         4.037368        -1.089389         1.754165
 H         4.324231         1.892171        -0.503131
 H         1.671156         1.628252        -1.237597
 H         2.725140         0.256970        -2.063059
 H         3.206591         1.379892         2.036098
