19
Iteration:  2407charge 0 multiplicity 1
 C        -0.048185        -0.335543        -0.541839
 C         1.480928        -0.058778        -0.146465
 C         2.252918        -1.303881         0.388026
 C         3.533168        -0.638901         0.935646
 O         4.496785        -0.211367        -0.146788
 C         3.662345         0.930256        -0.289984
 C         2.434527         0.679538        -1.164494
 C         3.001323         0.780401         1.207193
 O         1.616784         0.825631         1.109718
 H        -0.477557        -0.842684         0.308393
 H        -0.466719         0.596812        -0.879473
 H         0.077298        -0.976256        -1.440457
 H         1.643816        -1.928320         1.109120
 H         2.496709        -1.938451        -0.403078
 H         4.050183        -1.330859         1.670486
 H         4.225555         1.825928        -0.525702
 H         2.004740         1.461292        -1.688723
 H         2.743612        -0.070607        -1.933117
 H         3.397842         1.517704         1.886111
