19
Iteration:  4713
 C         0.075962        -0.257141        -0.640231
 C         1.537994        -0.020838        -0.146527
 C         2.281298        -1.387414         0.508742
 C         3.485146        -0.694986         0.979023
 O         4.346161        -0.360783        -0.157391
 C         3.665289         0.978559        -0.188427
 C         2.507311         0.891578        -1.160290
 C         3.067293         0.724648         1.134743
 O         1.528385         0.783200         1.005777
 H         0.232060        -0.838936        -1.552058
 H        -0.517979        -0.803464         0.040597
 H        -0.254736         0.783314        -0.714418
 H         1.749017        -1.766714         1.357869
 H         2.429880        -2.286647        -0.084286
 H         4.057354        -1.176917         1.685488
 H         4.318938         1.740315        -0.617143
 H         1.880997         1.835554        -1.341116
 H         2.760413         0.552754        -2.208717
 H         3.219872         1.160025         2.176411
