19
Iteration:  1098
 C         0.054724        -0.435613        -0.585105
 C         1.466524        -0.002578        -0.095927
 C         2.302855        -1.323262         0.412227
 C         3.554997        -0.636876         0.947352
 O         4.395290        -0.224961        -0.180392
 C         3.605421         1.024182        -0.266740
 C         2.375218         0.761775        -1.139915
 C         3.095843         0.760745         1.202124
 O         1.636241         0.770486         1.085132
 H        -0.548554        -1.222805        -0.135323
 H        -0.526237         0.410609        -1.003728
 H         0.400242        -0.881123        -1.552144
 H         1.661348        -1.795957         1.256376
 H         2.415931        -2.105285        -0.240693
 H         3.995588        -1.374200         1.674880
 H         4.258028         1.918484        -0.622620
 H         1.801015         1.667740        -1.322326
 H         2.537312         0.136122        -2.011594
 H         3.351981         1.516721         1.960415
