19
Iteration:  1016
 C         0.065261        -0.322185        -0.501163
 C         1.459512        -0.056811        -0.084251
 C         2.343701        -1.352842         0.329830
 C         3.553178        -0.643128         0.896258
 O         4.461003        -0.144697        -0.103539
 C         3.615573         0.976620        -0.255844
 C         2.360134         0.661244        -1.067583
 C         3.010127         0.774121         1.146748
 O         1.610962         0.742485         1.003441
 H        -0.617140        -0.620626         0.319158
 H        -0.407863         0.606778        -0.904126
 H         0.140695        -1.042254        -1.326914
 H         1.915236        -1.883511         1.108245
 H         2.424828        -1.823357        -0.713376
 H         4.018920        -1.275651         1.644653
 H         4.147843         1.828134        -0.598898
 H         1.887173         1.577724        -1.468012
 H         2.503247         0.105764        -1.993304
 H         3.265004         1.294634         2.132010
