19
Iteration:  1103charge 0 multiplicity 1
 C         0.122319        -0.448924        -0.628158
 C         1.483489        -0.022610        -0.070538
 C         2.242804        -1.252050         0.426290
 C         3.564229        -0.621557         0.990262
 O         4.401685        -0.273238        -0.203778
 C         3.617206         1.020169        -0.277642
 C         2.310173         0.788590        -1.145432
 C         3.086098         0.758702         1.201388
 O         1.637899         0.759024         1.093339
 H        -0.491159        -1.180826        -0.066233
 H        -0.480738         0.356626        -1.048308
 H         0.453485        -0.893502        -1.560068
 H         1.760079        -1.754771         1.237140
 H         2.401883        -2.156644        -0.360564
 H         4.112755        -1.336744         1.663483
 H         4.048701         1.941877        -0.494339
 H         1.757323         1.754519        -1.321136
 H         2.535221         0.146418        -2.024862
 H         3.469982         1.460452         1.955069
