19
Iteration:  1528
 C         0.076790        -0.413470        -0.591583
 C         1.514808        -0.071753        -0.098720
 C         2.252148        -1.302782         0.402932
 C         3.564834        -0.676927         0.922648
 O         4.473989        -0.197385        -0.161956
 C         3.600928         1.051876        -0.267140
 C         2.337525         0.690339        -1.140752
 C         3.074529         0.784903         1.178111
 O         1.601885         0.788029         1.110033
 H        -0.610010        -0.963478         0.115433
 H        -0.572944         0.421614        -0.880425
 H         0.185093        -0.960720        -1.542135
 H         1.603990        -1.756924         1.080210
 H         2.404630        -2.020126        -0.518752
 H         4.161558        -1.091546         1.786047
 H         4.201005         1.882989        -0.379202
 H         1.782510         1.481352        -1.518565
 H         2.572866         0.151175        -2.051116
 H         3.319446         1.436793         2.040338
