19
Iteration:  1501
 C        -0.014537        -0.226852        -0.338427
 C         1.556059        -0.161977        -0.225393
 C         2.395133        -1.407167         0.251917
 C         3.531398        -0.648355         0.890144
 O         4.517562        -0.110098        -0.024158
 C         3.562546         0.978305        -0.260901
 C         2.444079         0.579657        -1.192096
 C         2.968528         0.798528         1.174170
 O         1.527071         0.763216         1.016364
 H        -0.480035        -0.648999         0.532172
 H        -0.443675         0.782514        -0.529150
 H        -0.386093        -0.773684        -1.222675
 H         1.730502        -2.063976         0.932551
 H         2.727423        -1.985847        -0.524603
 H         4.046422        -1.026939         1.727915
 H         4.218684         1.923233        -0.511211
 H         1.922274         1.604784        -1.539039
 H         2.718258         0.088359        -2.164962
 H         3.232383         1.477981         1.994429
