19
Iteration:  4386
 C         0.008134        -0.122592        -0.364168
 C         1.463555        -0.064051        -0.162384
 C         2.311782        -1.342341         0.153239
 C         3.448518        -0.698896         0.947992
 O         4.524945        -0.246009         0.070420
 C         3.754494         0.960335        -0.243486
 C         2.440100         0.632775        -1.272228
 C         2.945730         0.761498         1.177348
 O         1.550691         0.754402         0.994924
 H        -0.538781        -1.040286         0.024068
 H        -0.450094         0.796691        -0.065070
 H        -0.182272        -0.102155        -1.413085
 H         1.846076        -1.998310         0.931416
 H         2.688089        -2.048281        -0.607872
 H         3.960406        -1.175854         1.756439
 H         4.205227         1.930384        -0.607739
 H         2.057234         1.499905        -1.672331
 H         2.671774        -0.026439        -2.084549
 H         3.381119         1.281987         2.025121
