19
Iteration:  1844charge 0 multiplicity 1
 C         0.167805        -0.455542        -0.687754
 C         1.510995        -0.086793        -0.068493
 C         2.313355        -1.332454         0.591970
 C         3.569125        -0.611922         0.958118
 O         4.249940        -0.298301        -0.238240
 C         3.645773         0.962786        -0.279919
 C         2.391366         0.908001        -1.132973
 C         3.037297         0.847168         1.111616
 O         1.606666         0.745137         1.117667
 H        -0.550966        -1.018586        -0.052022
 H        -0.289556         0.494941        -1.016690
 H         0.423432        -1.048551        -1.585580
 H         1.592284        -1.688320         1.393068
 H         2.482827        -2.144688        -0.319272
 H         4.173198        -1.278750         1.612306
 H         4.525999         1.766850        -0.470249
 H         1.697939         1.842667        -1.255599
 H         2.622237         0.492510        -2.146612
 H         3.299380         1.431261         2.024634
