19
Iteration:  2237charge 0 multiplicity 1
 C        -0.137025        -0.268975        -0.384701
 C         1.437139        -0.038377        -0.185527
 C         2.345681        -1.320729         0.303968
 C         3.599409        -0.757059         0.849812
 O         4.605541        -0.125929         0.038522
 C         3.644170         0.990943        -0.228740
 C         2.406053         0.536279        -1.248148
 C         2.974153         0.776720         1.150923
 O         1.543497         0.820413         1.023357
 H        -0.576564        -0.707896         0.499231
 H        -0.412749         0.789675        -0.644802
 H        -0.323987        -0.939821        -1.276802
 H         1.852532        -2.010732         1.034801
 H         2.570270        -1.860480        -0.685038
 H         4.142190        -1.298445         1.590939
 H         4.300371         1.866485        -0.574414
 H         2.104268         1.509226        -1.827897
 H         2.778518        -0.179639        -1.940161
 H         3.262953         1.473046         1.912025
