19
Iteration:   829charge 0 multiplicity 1
 C         0.205589        -0.488415        -0.653150
 C         1.543705        -0.042605        -0.059374
 C         2.264952        -1.352283         0.509813
 C         3.542825        -0.748682         0.931325
 O         4.294663        -0.224389        -0.225253
 C         3.547934         1.037127        -0.249817
 C         2.334806         0.808036        -1.113718
 C         3.111870         0.751564         1.158060
 O         1.629341         0.891132         1.079687
 H        -0.466269        -1.079340        -0.017527
 H        -0.420083         0.430152        -1.012435
 H         0.512852        -1.092668        -1.575143
 H         1.648884        -1.653058         1.361081
 H         2.314395        -2.124015        -0.305111
 H         4.203262        -1.320439         1.579908
 H         4.372301         1.812145        -0.470724
 H         1.639127         1.670562        -1.211919
 H         2.606407         0.592376        -2.119021
 H         3.497464         1.298614         1.987288
