19
Iteration:  1791
 C        -0.057380        -0.243328        -0.375867
 C         1.476607        -0.040023        -0.189008
 C         2.339239        -1.410517         0.226283
 C         3.511769        -0.650413         0.937578
 O         4.624785        -0.078842         0.042432
 C         3.589774         1.010411        -0.337075
 C         2.475153         0.563604        -1.225810
 C         2.973491         0.734533         1.121442
 O         1.560533         0.761206         1.089381
 H        -0.529869        -0.648680         0.530644
 H        -0.631374         0.695503        -0.522901
 H        -0.275857        -0.996898        -1.155061
 H         1.700082        -1.979470         0.814275
 H         2.450612        -2.086376        -0.745097
 H         3.888319        -1.291951         1.779070
 H         4.008559         1.935769        -0.584973
 H         1.930533         1.409472        -1.816852
 H         2.706384        -0.161960        -2.034017
 H         3.408962         1.416632         1.904852
