19
Iteration:  2991charge 0 multiplicity 1
 C         0.044163        -0.251544        -0.602933
 C         1.511534        -0.113916        -0.131886
 C         2.337415        -1.320181         0.440347
 C         3.507502        -0.652449         1.078314
 O         4.389436        -0.319841        -0.174673
 C         3.631054         0.909446        -0.224576
 C         2.370172         0.777261        -1.141640
 C         3.057738         0.748487         1.157498
 O         1.615797         0.820424         0.981818
 H        -0.713945        -0.589233         0.162089
 H        -0.174767         0.725382        -0.957021
 H         0.128795        -0.823087        -1.564451
 H         1.731906        -1.862245         1.211865
 H         2.749929        -1.977264        -0.300657
 H         4.058836        -1.137328         1.845075
 H         4.307646         1.736166        -0.483021
 H         1.803957         1.726346        -1.286828
 H         2.634303         0.303587        -2.189027
 H         3.189802         1.492289         1.909565
