19
Iteration:  4309
 C         0.027481        -0.402463        -0.772198
 C         1.491214        -0.021412        -0.073854
 C         2.184182        -1.264717         0.325553
 C         3.516509        -0.693509         1.021417
 O         4.352456        -0.330002        -0.197342
 C         3.666693         0.937981        -0.216151
 C         2.386994         0.872341        -1.045667
 C         3.154691         0.751084         1.222632
 O         1.666564         0.828130         1.116254
 H        -0.921677        -0.628021        -0.171567
 H        -0.297847         0.361194        -1.514365
 H         0.155270        -1.353282        -1.214365
 H         1.630502        -1.771708         1.166124
 H         2.617470        -1.973357        -0.435761
 H         4.165139        -1.259799         1.708513
 H         4.460615         1.762887        -0.497844
 H         1.899411         1.821016        -1.130958
 H         2.579530         0.426267        -2.029978
 H         3.588314         1.268874         2.044867
