19
Iteration:  2137charge 0 multiplicity 1
 C         0.097434        -0.530382        -0.765462
 C         1.522266        -0.027981        -0.108472
 C         2.215851        -1.263858         0.473220
 C         3.572021        -0.660363         0.911971
 O         4.315334        -0.281668        -0.226011
 C         3.599407         0.977286        -0.257558
 C         2.348667         0.770620        -1.060882
 C         3.130830         0.833224         1.182666
 O         1.647714         0.898219         1.187385
 H        -0.377230        -1.118588         0.036430
 H        -0.608842         0.248694        -1.159126
 H         0.596592        -1.263754        -1.448568
 H         1.524600        -1.650474         1.314318
 H         2.400672        -1.984813        -0.302096
 H         4.182396        -1.325693         1.543092
 H         4.346061         1.730614        -0.609116
 H         1.828906         1.778659        -1.186416
 H         2.624928         0.240251        -2.011392
 H         3.547480         1.081728         2.101261
