19
Iteration:   293
 C        -0.013537        -0.278990        -0.455799
 C         1.493636        -0.118624        -0.168294
 C         2.310044        -1.334017         0.362091
 C         3.569105        -0.644526         0.952420
 O         4.409709        -0.196282        -0.135433
 C         3.596417         1.017726        -0.222189
 C         2.497359         0.756563        -1.197582
 C         2.974964         0.762773         1.138425
 O         1.604940         0.671819         1.036118
 H        -0.476103        -0.682504         0.454953
 H        -0.348587         0.720337        -0.653009
 H        -0.097443        -0.838555        -1.368278
 H         1.679031        -1.827047         1.104587
 H         2.569469        -2.005191        -0.383586
 H         4.082388        -1.203240         1.741614
 H         4.319377         1.927426        -0.402495
 H         2.001126         1.667028        -1.624087
 H         2.915515         0.204311        -2.101820
 H         3.298663         1.269344         2.073592
