19
Iteration:  1316
 C        -0.055568        -0.214720        -0.402897
 C         1.498018        -0.130543        -0.153713
 C         2.378201        -1.398386         0.271903
 C         3.589703        -0.599627         1.007483
 O         4.512425        -0.180047        -0.086406
 C         3.572072         0.996957        -0.208741
 C         2.380492         0.670662        -1.173920
 C         2.979981         0.761672         1.118104
 O         1.578590         0.716789         0.947703
 H        -0.476527        -0.559514         0.562791
 H        -0.420659         0.832898        -0.652647
 H        -0.116258        -0.994571        -1.231164
 H         1.766849        -2.056010         1.037289
 H         2.871644        -1.950361        -0.459476
 H         4.165933        -1.136684         1.727864
 H         4.197003         1.984881        -0.412805
 H         1.855354         1.566272        -1.621108
 H         2.678525         0.089853        -2.044386
 H         3.223314         1.376010         1.974701
