19
Iteration:  3919charge 0 multiplicity 1
 C         0.090101        -0.303158        -0.505472
 C         1.517397        -0.093634        -0.166907
 C         2.202286        -1.332633         0.400537
 C         3.462978        -0.731000         0.902045
 O         4.453141        -0.274296        -0.158530
 C         3.684799         0.995534        -0.182341
 C         2.498595         0.775685        -1.106784
 C         2.972663         0.776221         1.175482
 O         1.590952         0.810171         0.985196
 H        -0.695428        -0.355262         0.299140
 H        -0.244928         0.548545        -1.141677
 H        -0.106006        -1.104064        -1.172659
 H         1.643408        -1.886790         1.206864
 H         2.404757        -2.135512        -0.357017
 H         3.930918        -1.156970         1.803384
 H         4.303968         1.850515        -0.465732
 H         2.037838         1.705427        -1.432491
 H         2.939586         0.377121        -2.086969
 H         3.252035         1.311613         2.082736
