19
Iteration:   721
 C         0.141686        -0.368965        -0.492833
 C         1.541961        -0.078749        -0.179238
 C         2.269074        -1.287702         0.434402
 C         3.538046        -0.692754         0.913280
 O         4.398242        -0.225948        -0.154926
 C         3.583519         1.035640        -0.260618
 C         2.378358         0.757004        -1.144698
 C         3.002344         0.789854         1.167391
 O         1.598455         0.743170         1.022168
 H        -0.325266        -0.690264         0.402170
 H        -0.350253         0.558496        -0.820187
 H         0.002208        -1.159799        -1.217759
 H         1.734883        -1.801377         1.210553
 H         2.523133        -2.076227        -0.313650
 H         4.043102        -1.262224         1.612585
 H         4.371048         1.818161        -0.446692
 H         1.900915         1.684061        -1.404618
 H         2.637286         0.163594        -1.966632
 H         3.369595         1.414207         1.975587
