19
Iteration:  4058charge 0 multiplicity 1
 C         0.143682        -0.314631        -0.616029
 C         1.462849         0.008641        -0.118490
 C         2.261634        -1.304435         0.271705
 C         3.499140        -0.725928         0.963839
 O         4.467688        -0.285561        -0.057580
 C         3.644516         0.885470        -0.268282
 C         2.333010         0.788015        -1.112353
 C         3.063448         0.768227         1.212377
 O         1.586466         0.817746         1.093895
 H        -0.610811        -0.626454         0.138448
 H        -0.274866         0.606803        -1.163901
 H         0.253422        -1.131581        -1.297757
 H         1.680235        -1.879848         0.993019
 H         2.513499        -1.951779        -0.580444
 H         4.066182        -1.330087         1.708690
 H         4.305220         1.757391        -0.566568
 H         1.956204         1.794951        -1.545300
 H         2.367583         0.253476        -2.076278
 H         3.294534         1.501747         1.987918
