19
Iteration:  3505
 C        -0.052368        -0.203201        -0.481299
 C         1.447427        -0.099805        -0.215732
 C         2.297568        -1.328851         0.285631
 C         3.521748        -0.644808         1.015660
 O         4.462861        -0.199750        -0.014360
 C         3.689426         0.954081        -0.292161
 C         2.438523         0.628162        -1.119472
 C         2.999081         0.808482         1.150431
 O         1.622044         0.726409         0.962791
 H        -0.475411        -0.707981         0.411300
 H        -0.392142         0.882418        -0.479289
 H        -0.269396        -0.688603        -1.429078
 H         1.639742        -1.923794         0.889817
 H         2.856455        -1.920109        -0.447998
 H         4.036252        -1.152410         1.867340
 H         4.359931         1.771670        -0.609281
 H         1.975062         1.545482        -1.437711
 H         2.871158        -0.054179        -2.009142
 H         3.258309         1.226123         2.114239
