19
Iteration:  4393charge 0 multiplicity 1
 C         0.010796        -0.150872        -0.447561
 C         1.488439        -0.038335        -0.180279
 C         2.271730        -1.321012         0.189832
 C         3.416999        -0.713955         0.939404
 O         4.518475        -0.197589         0.087574
 C         3.669315         0.930340        -0.249534
 C         2.424630         0.592944        -1.228922
 C         2.982110         0.764396         1.105919
 O         1.634542         0.780872         1.067050
 H        -0.320637        -1.015470         0.147905
 H        -0.596824         0.688378         0.058389
 H        -0.140378        -0.220910        -1.549451
 H         1.809899        -2.148219         0.745383
 H         2.727205        -1.760190        -0.729361
 H         3.831269        -1.398740         1.744885
 H         4.355799         1.720073        -0.575815
 H         2.001956         1.584404        -1.633803
 H         2.734384        -0.059460        -2.047161
 H         3.298255         1.292361         1.988673
