19
Iteration:  2760charge 0 multiplicity 1
 C         0.022208        -0.386613        -0.672210
 C         1.414751        -0.031444        -0.097560
 C         2.208507        -1.260137         0.479945
 C         3.542777        -0.637073         0.852782
 O         4.474929        -0.252761        -0.180717
 C         3.735588         0.955680        -0.275429
 C         2.476719         0.680499        -1.105603
 C         3.050681         0.787266         1.216152
 O         1.565845         0.817173         1.131070
 H        -0.573368        -1.201588        -0.157176
 H        -0.682382         0.462057        -0.823071
 H         0.167658        -0.624013        -1.698886
 H         1.641741        -1.611937         1.301826
 H         2.352700        -2.166659        -0.170190
 H         3.983435        -1.316395         1.582345
 H         4.445588         1.753743        -0.671388
 H         1.962471         1.707065        -1.295307
 H         2.605554         0.139635        -2.032261
 H         3.348374         1.307590         2.148201
