19
Iteration:  1612
 C        -0.047633        -0.263280        -0.424298
 C         1.445079        -0.101179        -0.134305
 C         2.303488        -1.310857         0.260446
 C         3.529979        -0.670914         0.891387
 O         4.637257        -0.095430        -0.061779
 C         3.582325         0.953537        -0.294922
 C         2.426753         0.590614        -1.170696
 C         2.978687         0.769059         1.162969
 O         1.584649         0.745510         1.053804
 H        -0.491414        -0.732872         0.480878
 H        -0.547731         0.657390        -0.688056
 H        -0.195050        -1.025377        -1.184764
 H         1.659147        -1.938353         0.982042
 H         2.724818        -1.897538        -0.534614
 H         3.819270        -1.161453         1.777164
 H         4.021201         2.033080        -0.494993
 H         1.862718         1.506010        -1.629775
 H         2.939655        -0.062574        -1.938047
 H         3.355101         1.393841         2.033733
