19
Iteration:  2886charge 0 multiplicity 1
 C         0.137283        -0.302059        -0.743998
 C         1.580638        -0.071669        -0.225270
 C         2.302428        -1.336434         0.523805
 C         3.541597        -0.671881         1.037921
 O         4.254278        -0.335271        -0.223069
 C         3.657342         0.920272        -0.274839
 C         2.355455         0.869019        -1.077425
 C         3.058221         0.821176         1.179738
 O         1.652903         0.785422         1.129182
 H        -0.617811        -0.701682        -0.110682
 H        -0.399466         0.577840        -1.210538
 H         0.158883        -1.136062        -1.527817
 H         1.610085        -1.553547         1.390418
 H         2.526387        -2.285906         0.049958
 H         4.199617        -1.215808         1.770777
 H         4.354617         1.690940        -0.525657
 H         1.815560         1.748027        -1.234234
 H         2.362237         0.284732        -1.989069
 H         3.196669         1.421789         2.012768
