19
Iteration:  3528
 C        -0.003920        -0.118643        -0.417687
 C         1.469944        -0.111308        -0.171913
 C         2.387300        -1.353172         0.166053
 C         3.511592        -0.687581         1.011147
 O         4.536950        -0.201526         0.071142
 C         3.620861         0.929502        -0.301528
 C         2.427882         0.605050        -1.290294
 C         2.927448         0.797215         1.123581
 O         1.555436         0.760997         1.084397
 H        -0.585897        -0.261788         0.540347
 H        -0.378993         0.840512        -0.867301
 H        -0.244991        -0.914361        -1.107285
 H         1.768681        -1.956099         0.813031
 H         2.884504        -1.926818        -0.639437
 H         3.881899        -1.361846         1.854817
 H         4.176238         1.872244        -0.333481
 H         1.916924         1.497547        -1.635855
 H         2.826092        -0.178578        -2.124771
 H         3.500310         1.478507         1.748273
