19
Iteration:  1238
 C         0.132546        -0.383711        -0.590095
 C         1.558820        -0.081334        -0.169979
 C         2.288334        -1.349602         0.428897
 C         3.498713        -0.631912         0.969048
 O         4.398445        -0.252307        -0.217406
 C         3.573950         0.998480        -0.234126
 C         2.368704         0.776740        -1.093367
 C         3.016943         0.839010         1.146985
 O         1.619344         0.732338         1.096673
 H        -0.272472        -1.132280         0.140907
 H        -0.358998         0.626164        -0.621442
 H         0.048875        -0.980535        -1.558938
 H         1.651414        -1.709051         1.320240
 H         2.547908        -2.117449        -0.356400
 H         4.067268        -1.030693         1.784686
 H         4.212026         1.917041        -0.634819
 H         1.765020         1.665200        -1.374530
 H         2.694889         0.342113        -2.063754
 H         3.418241         1.499458         1.970055
