19
Iteration:  1806charge 0 multiplicity 1
 C         0.097338        -0.315644        -0.431584
 C         1.485604        -0.121248        -0.092297
 C         2.278348        -1.305952         0.282663
 C         3.545612        -0.722930         0.914095
 O         4.465000        -0.116795        -0.025784
 C         3.629763         0.968735        -0.262839
 C         2.361832         0.658479        -1.218112
 C         2.980707         0.806609         1.127587
 O         1.588980         0.772212         1.011359
 H        -0.467935        -0.718797         0.410594
 H        -0.285813         0.675204        -0.754558
 H        -0.038351        -0.916161        -1.342006
 H         1.816750        -1.888453         1.113674
 H         2.555199        -1.951004        -0.440922
 H         4.098594        -1.270423         1.668453
 H         4.251645         1.832609        -0.536994
 H         1.981569         1.563806        -1.562791
 H         2.656618        -0.026623        -1.989975
 H         3.332139         1.374535         1.995706
