19
Iteration:  2947
 C        -0.088816        -0.217268        -0.367602
 C         1.437296        -0.038566        -0.166634
 C         2.223408        -1.249866         0.188968
 C         3.513252        -0.692065         0.954114
 O         4.587066        -0.176035         0.083972
 C         3.619344         0.982990        -0.271027
 C         2.533332         0.491690        -1.303632
 C         2.988560         0.739856         1.150967
 O         1.621300         0.824485         1.012713
 H        -0.446627        -1.012223         0.372010
 H        -0.540857         0.709179        -0.178374
 H        -0.156111        -0.463295        -1.427203
 H         1.648621        -1.983525         0.778736
 H         2.486958        -1.807153        -0.717249
 H         3.769181        -1.352807         1.742086
 H         4.051769         1.991831        -0.259268
 H         2.125245         1.276755        -2.019334
 H         2.883585        -0.425105        -1.917088
 H         3.449158         1.271047         2.024190
