19
Iteration:   554charge 0 multiplicity 1
 C         0.255208        -0.344241        -0.632054
 C         1.561639        -0.109898        -0.096789
 C         2.260328        -1.314207         0.561730
 C         3.538537        -0.647603         0.911232
 O         4.263613        -0.295435        -0.293640
 C         3.598801         1.031541        -0.246414
 C         2.380492         0.827683        -1.139247
 C         3.015473         0.830583         1.172665
 O         1.638209         0.724297         1.088144
 H        -0.378878        -0.847545         0.161040
 H        -0.326493         0.409115        -1.146702
 H         0.387593        -1.118890        -1.418221
 H         1.734798        -1.647953         1.608287
 H         2.320700        -2.164433        -0.038901
 H         3.919659        -1.354404         1.691396
 H         4.292107         1.949002        -0.312652
 H         1.719773         1.634262        -1.418273
 H         2.658896         0.295122        -2.078025
 H         3.231650         1.472584         2.024617
