19
Iteration:   113charge 0 multiplicity 1
 C         0.121634        -0.373202        -0.680797
 C         1.499424        -0.058970        -0.148974
 C         2.345716        -1.363487         0.566983
 C         3.540473        -0.654583         0.966368
 O         4.242813        -0.316987        -0.292817
 C         3.632652         1.021307        -0.286368
 C         2.486705         0.874610        -1.123913
 C         3.043571         0.823576         1.208064
 O         1.571493         0.745168         1.111012
 H        -0.330571        -0.903875         0.153843
 H        -0.414079         0.443267        -1.103753
 H         0.270117        -1.070015        -1.498544
 H         1.716083        -1.551530         1.374455
 H         2.339679        -2.385452         0.071537
 H         4.362057        -1.004060         1.719369
 H         4.283789         1.909194        -0.506086
 H         1.811082         1.782833        -1.327091
 H         2.709530         0.240086        -1.987134
 H         3.489943         1.232113         2.154532
