19
Iteration:  3717charge 0 multiplicity 1
 C         0.123005        -0.400909        -0.653386
 C         1.501689        -0.082560        -0.175475
 C         2.152514        -1.287791         0.433351
 C         3.471715        -0.700650         0.938861
 O         4.394124        -0.271119        -0.097840
 C         3.701060         0.980263        -0.261555
 C         2.378823         0.840213        -1.091752
 C         3.034465         0.756698         1.165118
 O         1.692083         0.809249         1.093515
 H        -0.737524        -0.481859        -0.033854
 H        -0.168814         0.422094        -1.269504
 H         0.185456        -1.295263        -1.335612
 H         1.506191        -1.682505         1.195632
 H         2.440030        -1.921466        -0.377785
 H         4.058355        -1.366027         1.571162
 H         4.444176         1.740873        -0.477931
 H         1.852275         1.766414        -1.233833
 H         2.549587         0.268861        -1.976385
 H         3.448993         1.450269         1.914184
