19
Iteration:  1850charge 0 multiplicity 1
 C         0.224755        -0.430445        -0.688681
 C         1.555166        -0.059756        -0.064347
 C         2.256645        -1.311727         0.571761
 C         3.560330        -0.641276         0.905945
 O         4.247393        -0.332657        -0.207043
 C         3.607997         1.014408        -0.339331
 C         2.358011         0.869752        -1.122056
 C         3.014958         0.839534         1.197633
 O         1.637005         0.727030         1.101053
 H        -0.326032        -1.091914        -0.004810
 H        -0.341038         0.372717        -1.188843
 H         0.585520        -0.984776        -1.562911
 H         1.701366        -1.617258         1.482566
 H         2.379186        -1.954155        -0.181386
 H         4.209950        -1.177720         1.597749
 H         4.304849         1.794847        -0.523520
 H         1.752145         1.723999        -1.121293
 H         2.593150         0.507081        -2.115203
 H         3.365918         1.522450         1.947217
