19
Iteration:  3121
 C        -0.014850        -0.197700        -0.545929
 C         1.477766        -0.077185        -0.131869
 C         2.184703        -1.386563         0.373176
 C         3.544682        -0.701578         0.919500
 O         4.584593        -0.172765        -0.051764
 C         3.651956         0.957326        -0.223725
 C         2.436278         0.620306        -1.108786
 C         2.994569         0.770078         1.133778
 O         1.600826         0.834408         0.964337
 H        -0.304842        -1.144007        -0.034849
 H        -0.639685         0.623024        -0.347344
 H        -0.015489        -0.617821        -1.591983
 H         1.590439        -1.796078         1.244962
 H         2.088890        -2.118970        -0.425645
 H         4.121011        -1.166595         1.705005
 H         4.189922         1.873736        -0.658439
 H         2.010745         1.511451        -1.432688
 H         2.753430        -0.012364        -1.957316
 H         3.260105         1.225279         2.066812
