19
Iteration:  4311
 C         0.034083        -0.382319        -0.776465
 C         1.494937        -0.003110        -0.053715
 C         2.192251        -1.251384         0.321017
 C         3.511416        -0.692767         1.021490
 O         4.351334        -0.321460        -0.209732
 C         3.663665         0.928783        -0.214798
 C         2.389177         0.836136        -1.043397
 C         3.173079         0.755246         1.218841
 O         1.638639         0.827896         1.127174
 H        -0.865596        -0.701057        -0.175398
 H        -0.268404         0.263119        -1.516762
 H         0.175298        -1.326970        -1.290322
 H         1.673767        -1.810930         1.120259
 H         2.621061        -1.956285        -0.390157
 H         4.120682        -1.292586         1.656967
 H         4.446601         1.683987        -0.425334
 H         1.942536         1.868556        -1.112210
 H         2.520047         0.353229        -2.104031
 H         3.604236         1.306728         2.051041
