19
Iteration:   372charge 0 multiplicity 1
 C         0.145755        -0.368684        -0.519710
 C         1.562792        -0.076897        -0.132012
 C         2.288033        -1.352988         0.410510
 C         3.522180        -0.690722         0.931420
 O         4.326384        -0.242713        -0.204067
 C         3.606313         1.049387        -0.263974
 C         2.447114         0.835314        -1.163426
 C         3.035606         0.768634         1.226776
 O         1.567632         0.726662         1.046139
 H        -0.389473        -0.958737         0.240230
 H        -0.337806         0.588513        -0.729649
 H         0.246420        -0.992557        -1.421355
 H         1.649297        -1.599643         1.198561
 H         2.347415        -2.198328        -0.304698
 H         3.965101        -1.311483         1.593927
 H         4.325460         1.895261        -0.393836
 H         1.782041         1.722855        -1.191917
 H         2.590033         0.490023        -2.153232
 H         3.537222         1.425082         1.974445
