19
Iteration:   123
 C         0.160226        -0.382854        -0.621987
 C         1.565044        -0.059940        -0.097608
 C         2.228398        -1.356371         0.471440
 C         3.570308        -0.629332         0.980721
 O         4.296165        -0.324985        -0.242828
 C         3.651406         1.066134        -0.281682
 C         2.349983         0.828858        -1.115524
 C         3.036244         0.780266         1.213247
 O         1.625749         0.759872         1.040038
 H        -0.508207        -0.891893         0.103583
 H        -0.395024         0.477496        -0.945202
 H         0.357693        -1.072544        -1.438505
 H         1.662426        -1.581103         1.350884
 H         2.541916        -2.277909        -0.131994
 H         4.144460        -1.225095         1.744658
 H         4.238351         1.863387        -0.493408
 H         1.900620         1.802088        -1.473713
 H         2.675766         0.292209        -1.984993
 H         3.205204         1.467484         2.089955
