19
Iteration:  1474charge 0 multiplicity 1
 C        -0.095332        -0.198646        -0.315490
 C         1.480173        -0.122962        -0.205603
 C         2.399697        -1.331223         0.259381
 C         3.534706        -0.619780         0.929135
 O         4.519908        -0.112721         0.037578
 C         3.587838         0.970414        -0.297154
 C         2.400280         0.646472        -1.198379
 C         3.017987         0.789739         1.137062
 O         1.593969         0.632148         0.953355
 H        -0.586880        -0.667325         0.578344
 H        -0.432004         0.798791        -0.618972
 H        -0.351908        -0.885915        -1.145717
 H         1.882858        -2.049203         0.833938
 H         2.932318        -1.916699        -0.656373
 H         4.038317        -1.151129         1.834054
 H         4.193132         1.757132        -0.588484
 H         2.069396         1.530969        -1.666145
 H         2.718609        -0.125093        -1.885524
 H         3.127582         1.564127         1.916840
