19
Iteration:   222charge 0 multiplicity 1
 C         0.020189        -0.348934        -0.629793
 C         1.492575        -0.096825        -0.146497
 C         2.263807        -1.262602         0.398260
 C         3.567922        -0.651129         0.929862
 O         4.400127        -0.229705        -0.202746
 C         3.620391         0.969212        -0.241113
 C         2.408145         0.708226        -1.064085
 C         3.028632         0.774354         1.210589
 O         1.641776         0.765844         1.104636
 H        -0.624780        -0.839292         0.122679
 H        -0.396808         0.634265        -0.956899
 H         0.118826        -0.971263        -1.548046
 H         1.744629        -1.778902         1.218475
 H         2.613474        -2.038855        -0.394390
 H         4.227084        -1.061121         1.769817
 H         4.052728         1.849867        -0.538591
 H         1.889994         1.658852        -1.352286
 H         2.707375         0.221335        -2.027315
 H         3.492022         1.412573         1.955132
