19
Iteration:  1729charge 0 multiplicity 1
 C         0.099986        -0.429685        -0.649318
 C         1.545824        -0.098372        -0.068741
 C         2.278614        -1.277680         0.404748
 C         3.541799        -0.664721         0.998494
 O         4.349431        -0.252552        -0.209339
 C         3.610917         1.019235        -0.284722
 C         2.375632         0.782820        -1.105216
 C         3.041025         0.852899         1.176338
 O         1.647829         0.744621         1.078933
 H        -0.545769        -0.955499         0.053208
 H        -0.433726         0.526937        -0.914094
 H         0.193255        -1.089697        -1.557254
 H         1.556634        -1.564827         1.234586
 H         2.573040        -2.099807        -0.211916
 H         4.137205        -1.287150         1.690069
 H         4.330808         1.822485        -0.545210
 H         1.752005         1.613479        -1.247652
 H         2.558351         0.264643        -2.015425
 H         3.313463         1.457815         2.103788
