19
Iteration:  3215charge 0 multiplicity 1
 C        -0.042665        -0.213548        -0.470683
 C         1.452018        -0.046890        -0.131614
 C         2.294543        -1.284554         0.273364
 C         3.572468        -0.771889         0.917388
 O         4.502235        -0.163336        -0.010488
 C         3.665561         0.975246        -0.234804
 C         2.482155         0.604649        -1.211325
 C         2.925654         0.789002         1.143388
 O         1.565757         0.762409         1.017230
 H        -0.655279        -0.248102         0.491941
 H        -0.312734         0.694238        -1.062664
 H        -0.198188        -1.136846        -1.002172
 H         1.940689        -1.876245         1.088804
 H         2.503493        -2.022392        -0.539849
 H         4.079601        -1.382194         1.696770
 H         4.331337         1.819766        -0.334578
 H         2.061491         1.499911        -1.878447
 H         2.995300        -0.065943        -1.850604
 H         3.283481         1.286321         2.018728
