19
Iteration:     9charge 0 multiplicity 1
 C         0.107719        -0.296624        -0.410876
 C         1.478710        -0.132738        -0.162107
 C         2.281855        -1.361288         0.298707
 C         3.530118        -0.739437         0.948528
 O         4.456195        -0.188842        -0.052581
 C         3.600887         1.015629        -0.267746
 C         2.422596         0.688964        -1.206350
 C         3.003703         0.804095         1.163073
 O         1.576443         0.785724         0.993120
 H        -0.472102        -0.670004         0.442391
 H        -0.238133         0.795310        -0.482413
 H        -0.064503        -0.898547        -1.350979
 H         1.665693        -1.858827         1.199825
 H         2.536106        -2.011714        -0.519467
 H         4.195488        -1.045565         1.702504
 H         4.062936         1.846047        -0.515731
 H         1.850676         1.549600        -1.479992
 H         2.885309         0.301045        -2.195767
 H         3.265019         1.470781         1.954754
