19
Iteration:  3770charge 0 multiplicity 1
 C         0.124198        -0.253471        -0.630891
 C         1.557477        -0.097805        -0.165172
 C         2.245837        -1.334191         0.380874
 C         3.447423        -0.658659         1.013220
 O         4.367598        -0.302712        -0.100931
 C         3.636299         0.995378        -0.293070
 C         2.406233         0.734885        -1.111390
 C         3.059223         0.809975         1.196711
 O         1.641290         0.752437         1.064826
 H        -0.562886        -0.833334         0.078814
 H        -0.339931         0.698131        -0.897164
 H         0.008197        -0.854213        -1.608192
 H         1.635702        -1.630086         1.213509
 H         2.412911        -2.100418        -0.381400
 H         4.032428        -1.281373         1.728128
 H         4.281079         1.748957        -0.698068
 H         1.817333         1.603530        -1.115115
 H         2.673001         0.304285        -2.137586
 H         3.496712         1.566642         1.879086
