19
Iteration:  1623charge 0 multiplicity 1
 C        -0.059447        -0.250855        -0.380414
 C         1.489595        -0.105314        -0.173372
 C         2.326444        -1.391282         0.193976
 C         3.496580        -0.706716         0.954471
 O         4.575324         0.002896         0.041404
 C         3.587459         1.012729        -0.266181
 C         2.429458         0.533031        -1.211453
 C         2.988663         0.719906         1.060275
 O         1.619439         0.779708         1.074683
 H        -0.533009        -0.526457         0.584203
 H        -0.467643         0.730491        -0.593783
 H        -0.334798        -0.874947        -1.218989
 H         1.827272        -2.127160         0.936814
 H         2.449831        -1.993705        -0.680715
 H         4.015839        -1.223758         1.716769
 H         4.137920         1.973538        -0.671223
 H         1.964693         1.492600        -1.701561
 H         2.513743        -0.208004        -2.056379
 H         3.527192         1.278692         1.868979
