19
Iteration:  1000
 C         0.126357        -0.406037        -0.607916
 C         1.555880        -0.092902        -0.137805
 C         2.271928        -1.347824         0.386130
 C         3.571364        -0.715095         0.940788
 O         4.354756        -0.217413        -0.198720
 C         3.577158         1.039478        -0.243155
 C         2.359298         0.789407        -1.163580
 C         3.048165         0.771169         1.203553
 O         1.623043         0.837517         1.140961
 H        -0.462448        -0.862728         0.196807
 H        -0.431041         0.443723        -0.967377
 H         0.166265        -1.228273        -1.329107
 H         1.521846        -1.770362         1.225358
 H         2.544700        -2.168875        -0.215377
 H         4.277814        -1.328981         1.661128
 H         4.100222         2.042139        -0.517332
 H         1.694102         1.653989        -1.425009
 H         2.691711         0.248734        -2.082400
 H         3.446143         1.370008         2.005233
