19
Iteration:  3612
 C         0.119706        -0.364213        -0.748406
 C         1.506219        -0.097552        -0.086295
 C         2.282360        -1.361002         0.411024
 C         3.487787        -0.689269         1.023175
 O         4.321132        -0.326565        -0.149208
 C         3.607357         0.942976        -0.278165
 C         2.404276         0.812047        -1.022207
 C         3.063377         0.822321         1.124733
 O         1.648239         0.894682         1.085887
 H        -0.374879        -1.030699        -0.055401
 H        -0.417305         0.655713        -0.664980
 H         0.200878        -0.810986        -1.752313
 H         1.746326        -2.051347         1.107714
 H         2.479509        -2.069794        -0.393756
 H         4.019759        -1.148362         1.837811
 H         4.409981         1.708327        -0.486036
 H         1.929038         1.726188        -1.338518
 H         2.559923         0.476330        -2.018241
 H         3.595402         1.446123         1.857652
