19
Iteration:  4303
 C         0.016104        -0.413706        -0.745827
 C         1.473096        -0.042142        -0.139199
 C         2.202637        -1.312964         0.366613
 C         3.529844        -0.708940         0.989268
 O         4.355199        -0.349068        -0.164234
 C         3.690400         0.981216        -0.227506
 C         2.382351         0.920438        -1.037390
 C         3.095183         0.745524         1.218338
 O         1.718319         0.827252         1.102633
 H        -0.830741        -0.396350        -0.075174
 H        -0.244679         0.383522        -1.430404
 H         0.172856        -1.444010        -1.197004
 H         1.539602        -1.724888         1.117556
 H         2.453903        -1.963265        -0.451426
 H         4.104213        -1.210119         1.771796
 H         4.281397         1.772089        -0.550964
 H         1.773489         1.870227        -1.184455
 H         2.710439         0.511688        -2.045478
 H         3.505771         1.289471         2.106951
