19
Iteration:  4158
 C         0.140084        -0.398819        -0.727817
 C         1.516229        -0.002718        -0.113104
 C         2.195429        -1.282183         0.424224
 C         3.505081        -0.703498         0.908954
 O         4.421122        -0.322914        -0.132483
 C         3.605884         0.917043        -0.289907
 C         2.364144         0.825670        -1.042845
 C         3.061850         0.724877         1.195668
 O         1.628758         0.885062         1.132297
 H        -0.439652        -1.232606        -0.177424
 H        -0.562775         0.432847        -0.714800
 H         0.325290        -0.614767        -1.794780
 H         1.617092        -1.760366         1.225247
 H         2.453773        -2.024102        -0.346955
 H         4.103925        -1.403599         1.506083
 H         4.282046         1.773873        -0.403224
 H         2.085835         1.928169        -1.273840
 H         2.479403         0.454470        -2.149381
 H         3.507413         1.262842         2.039320
