19
Iteration:  1078charge 0 multiplicity 1
 C         0.037840        -0.318715        -0.494204
 C         1.522627        -0.166505        -0.170015
 C         2.290312        -1.367526         0.325904
 C         3.569255        -0.652372         0.912154
 O         4.476122        -0.170797        -0.114100
 C         3.649455         1.016819        -0.229465
 C         2.410786         0.664408        -1.131736
 C         2.952034         0.822643         1.136980
 O         1.559654         0.811522         1.046541
 H        -0.296766        -0.851138         0.352281
 H        -0.408890         0.700128        -0.460449
 H        -0.358250        -0.781087        -1.396449
 H         1.854889        -2.098121         1.124301
 H         2.432851        -2.083084        -0.497838
 H         4.240052        -1.285774         1.702173
 H         4.038399         2.002665        -0.510795
 H         1.844024         1.596073        -1.411798
 H         2.807449         0.024297        -1.914191
 H         3.402823         1.318098         2.058631
