19
Iteration:   139
 C         0.120203        -0.373454        -0.558761
 C         1.516661        -0.105856        -0.126295
 C         2.276856        -1.274072         0.364703
 C         3.501911        -0.717391         0.945703
 O         4.410322        -0.212294        -0.114658
 C         3.585827         0.931026        -0.249741
 C         2.366782         0.703057        -1.115592
 C         3.047482         0.828607         1.144233
 O         1.627545         0.843046         1.050218
 H        -0.376226        -0.842350         0.292781
 H        -0.348864         0.614602        -0.809010
 H         0.150359        -0.990885        -1.482752
 H         1.674178        -1.956796         1.019355
 H         2.445758        -1.871392        -0.484426
 H         4.092777        -1.258562         1.689824
 H         4.280751         1.937930        -0.563375
 H         1.729381         1.568744        -1.117674
 H         2.551042         0.229505        -2.141976
 H         3.521888         1.350997         1.942604
