19
Iteration:  1737charge 0 multiplicity 1
 C         0.138077        -0.369295        -0.569202
 C         1.537889        -0.102885        -0.185681
 C         2.287505        -1.337512         0.442487
 C         3.530816        -0.602059         0.961175
 O         4.351239        -0.216761        -0.147621
 C         3.619464         1.000252        -0.256309
 C         2.342285         0.746694        -1.124569
 C         3.063979         0.788683         1.167289
 O         1.616070         0.736781         1.063240
 H        -0.438639        -0.832699         0.239134
 H        -0.370058         0.554451        -0.936783
 H         0.101464        -0.918394        -1.532875
 H         1.708911        -1.830559         1.139643
 H         2.483019        -2.089963        -0.420566
 H         4.113247        -1.169293         1.744200
 H         4.169681         1.814434        -0.529882
 H         1.770911         1.715194        -1.274881
 H         2.604215         0.201919        -2.046292
 H         3.455555         1.521949         1.911502
