19
Iteration:  3249charge 0 multiplicity 1
 C         0.047541        -0.129156        -0.424206
 C         1.449160        -0.162044        -0.195565
 C         2.357316        -1.402023         0.256956
 C         3.466457        -0.708350         1.060052
 O         4.484530        -0.165701         0.053000
 C         3.631293         0.976397        -0.236027
 C         2.385580         0.648508        -1.221688
 C         3.000107         0.827986         1.091781
 O         1.639319         0.691913         0.940132
 H        -0.539070        -0.530578         0.485019
 H        -0.184045         0.919985        -0.487698
 H        -0.356332        -0.620227        -1.331184
 H         1.690283        -1.953068         0.881819
 H         2.757981        -1.892222        -0.650918
 H         4.073556        -1.206193         1.807480
 H         4.299915         1.759691        -0.639149
 H         1.697563         1.588704        -1.542592
 H         2.682581         0.116317        -2.078365
 H         3.166434         1.550970         1.856316
