19
Iteration:  2781charge 0 multiplicity 1
 C         0.018289        -0.212655        -0.524508
 C         1.502953        -0.056777        -0.145512
 C         2.278507        -1.319904         0.301822
 C         3.553503        -0.702133         1.001715
 O         4.511675        -0.209510        -0.015377
 C         3.556368         0.986025        -0.278595
 C         2.395528         0.612670        -1.182390
 C         3.031046         0.768490         1.109319
 O         1.627762         0.783327         1.048613
 H        -0.418147        -1.001412         0.125542
 H        -0.557057         0.731669        -0.411732
 H        -0.107340        -0.442143        -1.562823
 H         1.625950        -1.870522         0.973796
 H         2.523016        -2.026825        -0.545206
 H         3.969950        -1.310943         1.837827
 H         4.128381         1.946592        -0.483392
 H         1.818925         1.431401        -1.802822
 H         2.747361        -0.179098        -1.823554
 H         3.325419         1.408308         1.945809
