19
Iteration:  2519
 C        -0.141463        -0.125877        -0.323898
 C         1.477942        -0.109455        -0.190909
 C         2.326145        -1.338039         0.223924
 C         3.488827        -0.646598         0.976186
 O         4.621637        -0.116662         0.044767
 C         3.694520         0.965409        -0.295799
 C         2.443478         0.514310        -1.220743
 C         3.023258         0.801620         1.112791
 O         1.537459         0.701563         0.967520
 H        -0.583960        -0.495577         0.578229
 H        -0.547230         0.888989        -0.691762
 H        -0.606499        -0.855094        -1.086159
 H         1.834339        -1.986087         0.967192
 H         2.599347        -1.890461        -0.717646
 H         3.966861        -1.364581         1.643096
 H         4.266836         1.930158        -0.574892
 H         1.985494         1.419850        -1.667394
 H         2.714069        -0.200841        -1.917149
 H         3.395013         1.235646         2.056000
