19
Iteration:  1706
 C         0.198978        -0.509756        -0.736149
 C         1.473228        -0.011460        -0.060664
 C         2.243677        -1.316555         0.532266
 C         3.571359        -0.634378         0.874962
 O         4.342017        -0.281011        -0.269541
 C         3.616597         0.946095        -0.229137
 C         2.353300         0.832447        -1.049796
 C         3.088654         0.753062         1.173443
 O         1.570985         0.902641         1.145820
 H        -0.344090        -1.203728        -0.101360
 H        -0.563281         0.217219        -1.211346
 H         0.496147        -1.122532        -1.657124
 H         1.660261        -1.679001         1.458777
 H         2.444264        -2.081251        -0.321651
 H         4.296807        -1.154056         1.575143
 H         4.318138         1.737528        -0.521026
 H         1.783948         1.713752        -1.166490
 H         2.467568         0.258000        -1.928953
 H         3.593358         1.435894         1.960711
