19
Iteration:  1196
 C        -0.099127        -0.222312        -0.396849
 C         1.372911        -0.204464        -0.209436
 C         2.368766        -1.357034         0.164199
 C         3.537747        -0.643838         0.972717
 O         4.616758        -0.076530         0.010597
 C         3.569195         1.030168        -0.274956
 C         2.407387         0.541581        -1.092006
 C         3.063988         0.771626         1.070531
 O         1.586556         0.768088         1.015532
 H        -0.443355        -0.716670         0.542146
 H        -0.526047         0.836506        -0.490443
 H        -0.381816        -0.849402        -1.310804
 H         1.694685        -2.085241         0.774159
 H         2.752486        -1.934103        -0.594568
 H         3.976055        -1.209460         1.802960
 H         4.154215         2.050949        -0.280331
 H         1.986814         1.390719        -1.620272
 H         2.776916        -0.169046        -1.811190
 H         3.426814         1.410262         1.922386
