19
Iteration:  4859
 C         0.110434        -0.367209        -0.697425
 C         1.502593        -0.049504        -0.149886
 C         2.113545        -1.313120         0.506803
 C         3.518058        -0.727151         1.036104
 O         4.385433        -0.346695        -0.125355
 C         3.652564         0.946505        -0.328108
 C         2.481031         0.748154        -1.043756
 C         3.034259         0.830307         1.107153
 O         1.631031         0.926240         1.049675
 H        -0.746698         0.232373        -0.446619
 H         0.199281        -0.264836        -1.824512
 H        -0.094577        -1.390832        -0.392450
 H         1.458322        -1.772054         1.312310
 H         2.322528        -2.097656        -0.239536
 H         4.189549        -1.394724         1.684947
 H         4.452089         1.643466        -0.396322
 H         2.059241         1.881099        -1.162844
 H         2.834840         0.295388        -2.059464
 H         3.424806         1.556042         1.730856
