19
Iteration:  3308charge 0 multiplicity 1
 C         0.219668        -0.406662        -0.717913
 C         1.536287        -0.050266        -0.109275
 C         2.237148        -1.328769         0.479422
 C         3.463792        -0.692019         0.978832
 O         4.256033        -0.282200        -0.210933
 C         3.613640         0.991085        -0.226806
 C         2.364300         0.781560        -1.184931
 C         3.055245         0.724252         1.226028
 O         1.693501         0.935956         1.144610
 H        -0.158845        -1.221862        -0.189279
 H        -0.554238         0.388682        -0.856233
 H         0.566970        -0.805539        -1.710579
 H         1.568396        -1.775853         1.280327
 H         2.379705        -2.227775        -0.116399
 H         4.069973        -1.324443         1.644765
 H         4.256504         1.810692        -0.663945
 H         1.837691         1.652221        -1.438478
 H         2.808834         0.283605        -2.165211
 H         3.462145         1.312064         2.100425
