19
Iteration:  4665charge 0 multiplicity 1
 C        -0.100903        -0.146785        -0.529557
 C         1.436845        -0.018500        -0.091269
 C         2.324815        -1.372421         0.210189
 C         3.499476        -0.684748         0.956352
 O         4.571156        -0.194399         0.037884
 C         3.690072         0.921738        -0.241746
 C         2.459272         0.645247        -1.214550
 C         2.960157         0.698756         1.106003
 O         1.607995         0.810194         1.071781
 H        -0.152415        -1.227951        -0.673362
 H        -0.823196         0.314089         0.247181
 H        -0.103757         0.512706        -1.401766
 H         1.867655        -2.179437         0.837892
 H         2.546979        -1.915737        -0.727151
 H         3.722952        -1.483079         1.791089
 H         4.121252         1.935966        -0.281252
 H         2.080043         1.441209        -1.739310
 H         2.523967        -0.121585        -1.937466
 H         3.434522         1.130899         1.954282
