19
Iteration:  3833
 C        -0.031338        -0.185931        -0.464192
 C         1.504910        -0.053620        -0.260267
 C         2.232549        -1.357871         0.341507
 C         3.506948        -0.719401         0.995554
 O         4.458451        -0.223258         0.001420
 C         3.655161         1.040124        -0.212187
 C         2.513671         0.661874        -1.302494
 C         3.025688         0.715236         1.189590
 O         1.604026         0.771506         0.981212
 H        -0.342079        -0.819600         0.405773
 H        -0.500323         0.697394        -0.126677
 H        -0.203400        -0.563910        -1.430449
 H         1.603922        -1.982880         1.047277
 H         2.469786        -2.015509        -0.544792
 H         3.863390        -1.225114         1.922276
 H         4.270565         1.924000        -0.311696
 H         1.942696         1.442323        -1.804180
 H         2.956435        -0.061021        -2.125929
 H         3.366298         1.402936         1.957636
