19
Iteration:  3829
 C        -0.025741        -0.193542        -0.447615
 C         1.511105        -0.040513        -0.287297
 C         2.222581        -1.374344         0.315391
 C         3.473004        -0.695563         0.989710
 O         4.471834        -0.189487         0.020092
 C         3.658060         1.013054        -0.169174
 C         2.510196         0.606165        -1.293749
 C         3.021388         0.726434         1.154657
 O         1.615938         0.776107         0.992901
 H        -0.284469        -0.761424         0.417647
 H        -0.488764         0.754345         0.006374
 H        -0.335469        -0.527612        -1.464597
 H         1.628449        -2.077592         0.926615
 H         2.355770        -1.981784        -0.588219
 H         3.970262        -1.163440         1.846586
 H         4.317791         1.909361        -0.422647
 H         1.960375         1.418271        -1.899704
 H         2.941052         0.009737        -2.015710
 H         3.401666         1.309360         2.005863
