19
Iteration:   823charge 0 multiplicity 1
 C         0.212454        -0.484689        -0.651224
 C         1.549128        -0.054805        -0.057163
 C         2.240062        -1.365075         0.532099
 C         3.537642        -0.706514         0.908399
 O         4.325598        -0.249740        -0.245279
 C         3.561416         1.025871        -0.291584
 C         2.332894         0.821047        -1.076358
 C         3.020937         0.770070         1.170863
 O         1.632295         0.873857         1.063129
 H        -0.394441        -0.991260         0.113259
 H        -0.294497         0.400203        -0.904520
 H         0.311764        -0.940323        -1.612614
 H         1.731096        -1.683256         1.455716
 H         2.495088        -2.137177        -0.239627
 H         4.252926        -1.332162         1.495403
 H         4.167241         1.933540        -0.396485
 H         1.845607         1.789522        -1.287474
 H         2.854112         0.550486        -2.059873
 H         3.559124         1.130867         2.091619
