19
Iteration:    47
 C        -0.175438        -0.297690        -0.348066
 C         1.478766        -0.058944        -0.156545
 C         2.344060        -1.278035         0.193010
 C         3.569837        -0.644992         0.961507
 O         4.584287        -0.209266        -0.011953
 C         3.650422         0.976254        -0.247258
 C         2.472187         0.598943        -1.237412
 C         2.994581         0.831923         1.142022
 O         1.540518         0.736373         1.016594
 H        -0.623994        -0.783303         0.542244
 H        -0.619033         0.664686        -0.463910
 H        -0.404413        -0.842532        -1.246625
 H         1.813225        -1.936040         0.787283
 H         2.666408        -1.811295        -0.755522
 H         3.892302        -1.279987         1.853732
 H         4.290146         1.851543        -0.671617
 H         2.097252         1.548764        -1.734610
 H         2.907468        -0.052117        -1.943287
 H         3.290548         1.452142         2.036891
