19
Iteration:  2354charge 0 multiplicity 1
 C        -0.112754        -0.215949        -0.363394
 C         1.487357        -0.128183        -0.210281
 C         2.351499        -1.384898         0.217916
 C         3.580971        -0.589300         0.979821
 O         4.475618        -0.221047        -0.022399
 C         3.669256         0.999150        -0.259692
 C         2.460603         0.573232        -1.198425
 C         2.982912         0.841030         1.178899
 O         1.579175         0.747975         0.992903
 H        -0.478847        -0.625600         0.547950
 H        -0.303603         0.866650        -0.612158
 H        -0.498652        -0.891016        -1.190554
 H         1.731226        -2.017620         0.950002
 H         2.691625        -1.854213        -0.669013
 H         3.977175        -1.166458         1.858660
 H         4.260327         1.815781        -0.750650
 H         1.873175         1.487304        -1.498064
 H         2.845323         0.021831        -2.058785
 H         3.305507         1.563867         1.921161
