19
Iteration:  3501charge 0 multiplicity 1
 C         0.003196        -0.202586        -0.466774
 C         1.480145        -0.103450        -0.167526
 C         2.299779        -1.312116         0.297234
 C         3.513359        -0.657838         1.007596
 O         4.469080        -0.208194        -0.044155
 C         3.704503         0.954565        -0.270562
 C         2.443059         0.637257        -1.099697
 C         2.972510         0.784651         1.125842
 O         1.592292         0.746049         0.942211
 H        -0.595699        -0.801058         0.243603
 H        -0.486131         0.813660        -0.497061
 H        -0.257468        -0.708513        -1.468909
 H         1.608595        -1.905173         0.968798
 H         2.699594        -2.076674        -0.391849
 H         3.981645        -1.217130         1.785414
 H         4.300926         1.865564        -0.545128
 H         1.945634         1.579567        -1.466186
 H         2.798608         0.052363        -1.959250
 H         3.342362         1.360119         2.010714
