19
Iteration:     1
 C         0.063698        -0.303486        -0.513548
 C         1.509064        -0.089215        -0.132454
 C         2.302138        -1.335487         0.350172
 C         3.544148        -0.655906         0.948320
 O         4.425582        -0.206845        -0.107864
 C         3.620572         0.985445        -0.264427
 C         2.396336         0.687567        -1.144604
 C         3.003403         0.794998         1.158424
 O         1.604820         0.767067         1.032487
 H        -0.485213        -0.776305         0.306294
 H        -0.418839         0.650176        -0.747408
 H        -0.006489        -0.950055        -1.393279
 H         1.723888        -1.861853         1.116383
 H         2.570779        -2.032675        -0.446491
 H         4.071885        -1.206086         1.728746
 H         4.214613         1.859260        -0.536149
 H         1.885425         1.607389        -1.446946
 H         2.670754         0.114459        -2.032947
 H         3.331073         1.400790         1.998963
