19
Iteration:  3936
 C        -0.034728        -0.171797        -0.461428
 C         1.494331        -0.048825        -0.243214
 C         2.297765        -1.429685         0.270348
 C         3.539896        -0.687019         1.012538
 O         4.436500        -0.215830         0.057550
 C         3.682362         0.982765        -0.259942
 C         2.447556         0.690594        -1.200247
 C         3.001278         0.754018         1.152561
 O         1.628104         0.758168         0.941398
 H        -0.323433        -0.522042         0.503443
 H        -0.518360         0.814997        -0.791990
 H        -0.363716        -1.069179        -1.107090
 H         1.613461        -1.804034         1.002756
 H         2.583821        -2.090637        -0.527787
 H         3.972468        -1.427395         1.698675
 H         4.262056         1.939297        -0.390509
 H         1.888962         1.668072        -1.365587
 H         2.641522         0.172568        -2.083520
 H         3.388061         1.334227         1.993179
