19
Iteration:   988
 C         0.168694        -0.486530        -0.615890
 C         1.526818        -0.128244        -0.219413
 C         2.273318        -1.304165         0.476417
 C         3.509010        -0.620069         0.955499
 O         4.328267        -0.289220        -0.317309
 C         3.566933         1.030937        -0.226877
 C         2.391954         0.836013        -1.121028
 C         3.039735         0.829016         1.208531
 O         1.645084         0.789034         1.185315
 H        -0.458484        -0.950477         0.203995
 H        -0.279092         0.385744        -1.053016
 H         0.284958        -1.068046        -1.542556
 H         1.593602        -1.640531         1.438354
 H         2.302051        -2.043884        -0.272451
 H         4.089379        -1.272185         1.742815
 H         4.383112         1.931072        -0.409006
 H         1.844051         1.794108        -1.300902
 H         2.829150         0.483068        -2.095882
 H         3.432613         1.274741         2.074881
