19
Iteration:  2951charge 0 multiplicity 1
 C        -0.047584        -0.214355        -0.344236
 C         1.431548        -0.055164        -0.163329
 C         2.220457        -1.252718         0.192494
 C         3.462632        -0.682936         0.969537
 O         4.592715        -0.147750         0.076186
 C         3.673838         0.972091        -0.288101
 C         2.518095         0.515210        -1.304200
 C         2.937032         0.731416         1.141098
 O         1.632217         0.798774         1.008302
 H        -0.483021        -0.942957         0.305867
 H        -0.555590         0.791492        -0.116422
 H        -0.166097        -0.514812        -1.446798
 H         1.615881        -1.952804         0.802400
 H         2.441565        -1.942598        -0.610131
 H         3.849957        -1.389557         1.756580
 H         4.081008         1.953665        -0.318988
 H         2.235006         1.329680        -1.950570
 H         2.884206        -0.356768        -1.943255
 H         3.466793         1.226987         1.897660
