19
Iteration:  1536charge 0 multiplicity 1
 C         0.100330        -0.443717        -0.661416
 C         1.463485        -0.056158        -0.118387
 C         2.265405        -1.304778         0.438477
 C         3.591353        -0.640453         0.895743
 O         4.444310        -0.237664        -0.225978
 C         3.581006         0.986020        -0.235111
 C         2.385006         0.742552        -1.138129
 C         3.026083         0.811024         1.235821
 O         1.580489         0.812343         1.165580
 H        -0.472464        -1.112446         0.035927
 H        -0.494821         0.445642        -0.930615
 H         0.327424        -1.089002        -1.522239
 H         1.669447        -1.725643         1.287011
 H         2.595461        -2.064423        -0.254291
 H         4.055047        -1.148119         1.695818
 H         4.183746         1.869877        -0.652152
 H         1.838970         1.764523        -1.355905
 H         2.520604         0.117972        -2.070245
 H         3.741429         1.391219         1.895981
