19
Iteration:  4195
 C         0.046357        -0.333412        -0.617215
 C         1.498375        -0.091024        -0.174985
 C         2.259848        -1.360536         0.440064
 C         3.516833        -0.682282         0.980610
 O         4.258301        -0.307965        -0.200655
 C         3.661023         1.009678        -0.182105
 C         2.539646         0.874994        -1.150351
 C         3.039481         0.760407         1.199685
 O         1.661598         0.781993         1.048272
 H        -0.392667        -1.252656        -0.158267
 H        -0.440866         0.667839        -0.352454
 H        -0.056685        -0.394599        -1.808574
 H         1.487221        -1.818902         1.145233
 H         2.656359        -2.186130        -0.206288
 H         4.138677        -1.212207         1.733345
 H         4.227791         1.921879        -0.451614
 H         2.045897         1.784098        -1.372316
 H         2.835372         0.292000        -2.017697
 H         3.354642         1.252942         2.140174
