19
Iteration:  1504
 C         0.012454        -0.238812        -0.358636
 C         1.538828        -0.162244        -0.209457
 C         2.374075        -1.401352         0.267663
 C         3.524262        -0.656669         0.874610
 O         4.495111        -0.099944        -0.023421
 C         3.561733         0.985563        -0.256000
 C         2.441376         0.600557        -1.163754
 C         2.970271         0.797704         1.175094
 O         1.552989         0.759710         0.999005
 H        -0.524369        -0.649162         0.534135
 H        -0.495127         0.731759        -0.518972
 H        -0.282637        -0.787764        -1.266802
 H         1.797940        -2.006886         0.965424
 H         2.778567        -2.032744        -0.538474
 H         4.015047        -1.103752         1.710148
 H         4.185898         1.840507        -0.590975
 H         1.982317         1.541796        -1.564073
 H         2.653154         0.090749        -2.121293
 H         3.361086         1.497154         1.991415
