19
Iteration:  1932charge 0 multiplicity 1
 C        -0.055077        -0.127481        -0.289755
 C         1.548603        -0.163251        -0.214027
 C         2.418906        -1.444475         0.180895
 C         3.548984        -0.656871         1.004219
 O         4.502680        -0.120496         0.066787
 C         3.558931         1.031726        -0.342724
 C         2.428551         0.551355        -1.251361
 C         2.941949         0.809744         1.178952
 O         1.570337         0.716651         0.940639
 H        -0.579221        -0.457337         0.577206
 H        -0.417249         0.904355        -0.390222
 H        -0.464951        -0.789033        -1.064484
 H         1.836817        -2.100160         0.805278
 H         2.748139        -2.126708        -0.697972
 H         4.177678        -1.154213         1.770059
 H         4.139834         2.022985        -0.533783
 H         1.885543         1.476871        -1.592204
 H         2.866372         0.143829        -2.137172
 H         3.266565         1.305175         2.112921
