19
Iteration:  3254charge 0 multiplicity 1
 C         0.014366        -0.181640        -0.450891
 C         1.498218        -0.130748        -0.168007
 C         2.373372        -1.354429         0.306399
 C         3.512583        -0.679989         1.015792
 O         4.463865        -0.199456         0.066197
 C         3.639991         0.972257        -0.266289
 C         2.387768         0.689016        -1.240016
 C         3.000296         0.778103         1.102636
 O         1.606285         0.694136         0.966108
 H        -0.509402        -0.537826         0.382530
 H        -0.287901         0.900858        -0.485262
 H        -0.308878        -0.495502        -1.459325
 H         1.644007        -1.991207         0.906169
 H         2.562110        -1.975016        -0.577576
 H         4.056704        -1.216459         1.815384
 H         4.243599         1.797464        -0.686756
 H         1.916343         1.557997        -1.477841
 H         2.582807         0.124891        -2.233490
 H         3.179660         1.577136         1.872575
