19
Iteration:   637charge 0 multiplicity 1
 C        -0.055729        -0.295665        -0.317335
 C         1.487574        -0.148602        -0.190867
 C         2.338596        -1.358414         0.254794
 C         3.622069        -0.661253         0.983303
 O         4.478244        -0.199551        -0.081493
 C         3.614418         1.066626        -0.214190
 C         2.431074         0.640015        -1.173737
 C         2.972047         0.810573         1.129657
 O         1.590606         0.768620         0.919221
 H        -0.576828        -0.724900         0.566681
 H        -0.361407         0.756794        -0.407058
 H        -0.296202        -0.686484        -1.310235
 H         1.768205        -1.853613         0.997684
 H         2.511001        -2.059570        -0.624023
 H         3.837885        -1.213710         1.936973
 H         4.204001         1.920988        -0.384783
 H         2.016596         1.565134        -1.678243
 H         2.904850        -0.007928        -1.978317
 H         3.288749         1.333005         1.976769
