19
Iteration:  4852
 C         0.135391        -0.383013        -0.705250
 C         1.497492         0.008739        -0.074849
 C         2.129456        -1.331646         0.461330
 C         3.489704        -0.727880         0.995662
 O         4.411305        -0.318515        -0.086315
 C         3.685323         0.901445        -0.283592
 C         2.401971         0.747999        -1.114519
 C         3.085095         0.821235         1.165218
 O         1.628649         0.943869         1.035153
 H        -0.763300         0.320658        -0.598716
 H         0.184005        -0.378394        -1.755464
 H        -0.313811        -1.362090        -0.459080
 H         1.520843        -1.882943         1.180037
 H         2.420332        -2.124816        -0.235290
 H         3.952257        -1.387918         1.725656
 H         4.353616         1.743138        -0.605122
 H         1.895714         1.584025        -1.413937
 H         2.618663         0.261299        -1.988974
 H         3.715801         1.558762         1.811812
