19
Iteration:   268
 C         0.162825        -0.441452        -0.643372
 C         1.497308        -0.048587        -0.100428
 C         2.273789        -1.336572         0.395848
 C         3.545562        -0.682084         0.953624
 O         4.316984        -0.286807        -0.255245
 C         3.623709         0.971981        -0.221436
 C         2.356362         0.814661        -1.026991
 C         3.066529         0.822800         1.202747
 O         1.617113         0.855572         1.056666
 H        -0.254858        -0.920385         0.227050
 H        -0.401635         0.462692        -0.967666
 H         0.419728        -1.097883        -1.509530
 H         1.597687        -1.752461         1.194028
 H         2.494625        -2.175374        -0.370868
 H         4.176298        -1.330129         1.764836
 H         4.340733         1.769030        -0.554025
 H         1.752718         1.786790        -1.124246
 H         2.543912         0.482984        -2.179746
 H         3.383942         1.243674         2.138921
