19
Iteration:  4375charge 0 multiplicity 1
 C        -0.092187        -0.094424        -0.392930
 C         1.506229        -0.120738        -0.234885
 C         2.341137        -1.396293         0.264267
 C         3.582137        -0.652023         0.967242
 O         4.537596        -0.261089        -0.020811
 C         3.672309         0.954679        -0.251795
 C         2.508600         0.700881        -1.192774
 C         2.952395         0.740886         1.207075
 O         1.509469         0.743136         0.922865
 H        -0.678221        -0.906362         0.177699
 H        -0.320251         0.828970         0.101676
 H        -0.377037        -0.133832        -1.409528
 H         1.578639        -1.738671         0.987204
 H         2.485492        -2.105961        -0.571015
 H         3.852652        -1.254715         1.809500
 H         4.423314         1.815033        -0.322129
 H         2.100173         1.574993        -1.547324
 H         2.754431         0.029409        -1.994155
 H         3.101671         1.352614         2.098697
