19
Iteration:   824
 C         0.212319        -0.488365        -0.653101
 C         1.551632        -0.048842        -0.054524
 C         2.244061        -1.367808         0.527848
 C         3.534725        -0.712530         0.911018
 O         4.320862        -0.245508        -0.241476
 C         3.557908         1.030701        -0.289493
 C         2.331604         0.815791        -1.078868
 C         3.032934         0.766592         1.166164
 O         1.631914         0.878428         1.064972
 H        -0.412045        -0.998893         0.103873
 H        -0.304888         0.396713        -0.921647
 H         0.341779        -0.952263        -1.616728
 H         1.712928        -1.676067         1.464836
 H         2.472514        -2.103770        -0.231704
 H         4.277760        -1.361024         1.516561
 H         4.177940         1.879683        -0.391540
 H         1.802512         1.797020        -1.287029
 H         2.845976         0.579949        -2.087937
 H         3.567880         1.142892         2.088453
