19
Iteration:  4781charge 0 multiplicity 1
 C         0.016793        -0.109563        -0.524887
 C         1.492328        -0.106888        -0.254347
 C         2.274914        -1.264684         0.311343
 C         3.520935        -0.737462         0.985177
 O         4.529331        -0.226042        -0.002256
 C         3.588551         0.903972        -0.200839
 C         2.422810         0.567862        -1.147992
 C         3.046065         0.799049         1.209813
 O         1.560821         0.783862         0.935323
 H        -0.264712         0.439194        -1.382058
 H        -0.533087        -1.095212        -0.625476
 H        -0.456966         0.309856         0.366165
 H         1.709195        -1.806108         1.094800
 H         2.443585        -2.083323        -0.411962
 H         4.045602        -1.400706         1.705224
 H         4.209487         1.780080        -0.409931
 H         2.202229         1.626596        -1.570011
 H         2.827610         0.054533        -2.123025
 H         3.343613         1.395207         2.050817
