19
Iteration:  2374charge 0 multiplicity 1
 C         0.000014        -0.120522        -0.280381
 C         1.489862        -0.215310        -0.187794
 C         2.343477        -1.474514         0.278390
 C         3.470303        -0.664222         0.966358
 O         4.565560        -0.099409         0.045015
 C         3.642175         0.936130        -0.324650
 C         2.444417         0.682355        -1.220502
 C         2.916941         0.767969         1.061448
 O         1.589659         0.766666         0.918027
 H        -0.470306        -0.496600         0.648496
 H        -0.411935         0.858256        -0.412295
 H        -0.492847        -0.816355        -0.961532
 H         1.672508        -2.190978         0.806423
 H         2.798778        -1.860801        -0.568502
 H         3.874163        -1.207778         1.879544
 H         4.144369         1.862827        -0.360717
 H         2.014202         1.553637        -1.508304
 H         2.711394         0.014659        -2.080048
 H         3.311241         1.439154         1.793278
