19
Iteration:   726charge 0 multiplicity 1
 C         0.108007        -0.330135        -0.470164
 C         1.508722        -0.097660        -0.201615
 C         2.286953        -1.303822         0.397643
 C         3.511673        -0.676731         0.935756
 O         4.434361        -0.212340        -0.144819
 C         3.610837         1.039216        -0.234064
 C         2.386553         0.742447        -1.161193
 C         3.041924         0.789820         1.144343
 O         1.571462         0.734037         1.024922
 H        -0.222847        -0.719645         0.565884
 H        -0.496537         0.521238        -0.794464
 H        -0.057844        -1.144992        -1.207940
 H         1.685075        -1.745516         1.253817
 H         2.564932        -2.072762        -0.354816
 H         4.172851        -1.252887         1.731644
 H         4.232510         1.871120        -0.476163
 H         1.961508         1.719888        -1.596233
 H         2.595142         0.050596        -2.092787
 H         3.330800         1.245600         2.119750
