19
Iteration:  3559charge 0 multiplicity 1
 C        -0.036837        -0.279169        -0.588377
 C         1.470741        -0.145131        -0.172789
 C         2.203552        -1.379978         0.326012
 C         3.537708        -0.691391         0.918766
 O         4.483913        -0.221711        -0.090376
 C         3.673182         1.020515        -0.227958
 C         2.458175         0.671456        -1.142269
 C         3.015665         0.803677         1.244962
 O         1.635218         0.852312         1.046155
 H        -0.598013        -0.366582         0.367660
 H        -0.395351         0.598905        -1.244026
 H        -0.054750        -1.224713        -1.140509
 H         1.624241        -1.758629         1.164491
 H         2.460908        -2.189633        -0.368512
 H         4.060685        -1.399952         1.601171
 H         4.344348         1.906425        -0.344482
 H         1.828264         1.509923        -1.378304
 H         2.885262         0.215361        -2.178095
 H         3.390114         1.397051         2.092009
