19
Iteration:  4962
 C         0.068706        -0.237699        -0.524660
 C         1.555291        -0.104455        -0.194402
 C         2.196687        -1.332406         0.413738
 C         3.434129        -0.665982         1.029008
 O         4.425898        -0.329835        -0.055249
 C         3.691177         0.970044        -0.299348
 C         2.509368         0.611171        -1.122635
 C         2.939101         0.854442         1.110825
 O         1.616061         0.863959         0.949920
 H        -0.466580        -0.289422         0.456156
 H        -0.192255         0.680449        -1.045306
 H        -0.230291        -1.035838        -1.231384
 H         1.613844        -1.806480         1.201262
 H         2.574958        -2.054473        -0.340718
 H         3.938139        -1.089247         1.878492
 H         4.440562         1.681853        -0.685333
 H         1.990257         1.571326        -1.438527
 H         2.912330         0.057476        -1.952884
 H         3.328498         1.370264         2.054032
