19
Iteration:  1582
 C         0.147318        -0.385794        -0.588707
 C         1.570424        -0.117489        -0.145042
 C         2.336611        -1.376493         0.458927
 C         3.519766        -0.695723         0.966336
 O         4.303895        -0.225349        -0.210820
 C         3.585523         1.005092        -0.302018
 C         2.374344         0.800945        -1.109507
 C         3.018687         0.813399         1.165724
 O         1.633381         0.806413         1.082705
 H        -0.469140        -0.908317         0.228374
 H        -0.416575         0.523544        -0.837545
 H         0.108166        -1.132635        -1.403634
 H         1.680151        -1.709759         1.225971
 H         2.703266        -2.168221        -0.344060
 H         4.097470        -1.124222         1.822214
 H         4.187921         1.866759        -0.456108
 H         1.741497         1.727937        -1.281161
 H         2.722481         0.457750        -2.116499
 H         3.330587         1.417824         2.024456
