19
Iteration:   505
 C         0.042897        -0.356964        -0.520009
 C         1.442571        -0.023061        -0.092509
 C         2.291730        -1.316947         0.286610
 C         3.597319        -0.694728         0.998227
 O         4.493725        -0.215130        -0.091686
 C         3.635040         0.983414        -0.322847
 C         2.377005         0.656884        -1.087895
 C         3.026744         0.806531         1.135245
 O         1.569772         0.810517         1.055971
 H        -0.505891        -0.877807         0.261595
 H        -0.568999         0.563231        -0.776339
 H         0.013776        -0.919261        -1.479227
 H         1.561149        -1.896782         0.809301
 H         2.570907        -1.979849        -0.631228
 H         4.163237        -1.286632         1.750768
 H         4.165982         1.848042        -0.618259
 H         1.988075         1.645268        -1.376112
 H         2.539639         0.153933        -2.021896
 H         3.415132         1.339795         2.059303
