19
Iteration:  4404charge 0 multiplicity 1
 C         0.009180        -0.238186        -0.555056
 C         1.465966        -0.027594        -0.165496
 C         2.226193        -1.309794         0.178711
 C         3.503828        -0.725282         0.984504
 O         4.494325        -0.210538         0.045817
 C         3.589623         0.892665        -0.298233
 C         2.451724         0.631982        -1.096007
 C         3.084278         0.768137         1.171376
 O         1.660832         0.837448         1.076392
 H        -0.356208        -1.184971        -0.101654
 H        -0.563959         0.747061        -0.258709
 H        -0.373652        -0.485947        -1.584154
 H         1.469963        -1.983538         0.606145
 H         2.523478        -1.740878        -0.811707
 H         3.802239        -1.359735         1.892197
 H         4.089244         1.849994        -0.532973
 H         2.007626         1.626803        -1.552193
 H         2.657143        -0.036362        -1.940025
 H         3.615414         1.410227         1.863588
