19
Iteration:  3302charge 0 multiplicity 1
 C         0.214563        -0.421148        -0.715897
 C         1.453480        -0.078880        -0.080227
 C         2.210596        -1.307154         0.467972
 C         3.482753        -0.717370         0.933349
 O         4.253717        -0.278053        -0.153510
 C         3.578424         1.035754        -0.272359
 C         2.448543         0.763703        -1.142056
 C         3.093856         0.741935         1.227538
 O         1.712901         0.937461         1.102674
 H        -0.239450        -1.307160        -0.124260
 H        -0.596051         0.300210        -0.882063
 H         0.542902        -0.634643        -1.721578
 H         1.589768        -1.700571         1.268372
 H         2.320567        -2.168060        -0.262782
 H         4.216103        -1.301908         1.524743
 H         4.333896         1.781840        -0.468593
 H         1.681708         1.589122        -1.465246
 H         2.729088         0.251784        -1.997373
 H         3.481122         1.219360         2.090522
