19
Iteration:  2532
 C        -0.085110        -0.153858        -0.400478
 C         1.434040        -0.199160        -0.219630
 C         2.254917        -1.386936         0.258989
 C         3.605107        -0.613288         0.933406
 O         4.534854        -0.167145        -0.004317
 C         3.689473         0.940966        -0.294608
 C         2.514208         0.596770        -1.148667
 C         2.944235         0.805747         1.117784
 O         1.565827         0.724581         1.023774
 H        -0.417521        -0.229958         0.663163
 H        -0.323807         0.932203        -0.516207
 H        -0.501944        -0.864583        -1.098347
 H         1.701111        -2.022770         0.934067
 H         2.766901        -2.095436        -0.510163
 H         3.981998        -0.991847         1.817844
 H         4.254672         1.825230        -0.693846
 H         2.005532         1.572096        -1.352427
 H         2.766541         0.226426        -2.093561
 H         3.191776         1.614180         1.739353
