19
Iteration:  2221
 C         0.005990        -0.170331        -0.332472
 C         1.476108        -0.125905        -0.151311
 C         2.308504        -1.341692         0.112426
 C         3.565382        -0.665436         0.931626
 O         4.567607        -0.049218         0.071912
 C         3.610335         0.915721        -0.316981
 C         2.457249         0.512585        -1.200317
 C         2.925582         0.816028         1.140924
 O         1.570002         0.756388         1.006264
 H        -0.407224        -0.615671         0.623755
 H        -0.458994         0.785277        -0.487303
 H        -0.352122        -0.728102        -1.168731
 H         1.792785        -1.815808         0.995381
 H         2.423821        -2.137920        -0.554309
 H         3.869007        -1.495921         1.632497
 H         4.000548         1.832135        -0.616683
 H         2.029928         1.310165        -1.741867
 H         2.695428        -0.267084        -2.039035
 H         3.337903         1.308819         2.063629
