19
Iteration:  1390charge 0 multiplicity 1
 C         0.158672        -0.378833        -0.613179
 C         1.554711        -0.095912        -0.077027
 C         2.309214        -1.357009         0.458333
 C         3.565476        -0.652415         0.962170
 O         4.310412        -0.277085        -0.223988
 C         3.625704         1.001797        -0.312880
 C         2.327207         0.793221        -1.061986
 C         3.043740         0.797306         1.183052
 O         1.601038         0.789093         1.031725
 H        -0.407757        -0.976658         0.078832
 H        -0.415050         0.488390        -0.883206
 H         0.560561        -0.880133        -1.477298
 H         1.719426        -1.791176         1.282410
 H         2.508006        -2.064130        -0.315209
 H         4.020904        -1.102467         1.848383
 H         4.266053         1.894915        -0.462994
 H         1.731921         1.770559        -1.128749
 H         2.460337         0.372584        -2.081552
 H         3.269446         1.569672         1.914192
