19
Iteration:  4200charge 0 multiplicity 1
 C         0.004077        -0.291340        -0.623853
 C         1.507804        -0.112589        -0.187404
 C         2.288789        -1.376369         0.362157
 C         3.541747        -0.709036         1.010436
 O         4.319999        -0.272878        -0.170853
 C         3.653754         0.993367        -0.189635
 C         2.503675         0.838426        -1.131283
 C         2.991758         0.761307         1.177203
 O         1.653320         0.785419         1.065757
 H        -0.475673        -1.083951        -0.060828
 H        -0.372953         0.684434        -0.327819
 H        -0.100819        -0.329043        -1.647121
 H         1.619821        -1.748664         1.168199
 H         2.583289        -2.316108        -0.146521
 H         4.047736        -1.111292         1.922874
 H         4.276111         1.856887        -0.627296
 H         2.113725         1.855854        -1.459177
 H         2.743972         0.287078        -2.059438
 H         3.406211         1.230218         2.068487
