19
Iteration:  2291
 C         0.152142        -0.406945        -0.678652
 C         1.538668        -0.027839        -0.084225
 C         2.323824        -1.301994         0.557094
 C         3.566712        -0.632423         1.039316
 O         4.280120        -0.357923        -0.321139
 C         3.602019         0.945564        -0.283449
 C         2.356222         0.843617        -1.100476
 C         3.084530         0.780491         1.211883
 O         1.579458         0.792547         1.073399
 H        -0.573224        -0.975493        -0.077381
 H        -0.358314         0.431749        -1.238713
 H         0.479682        -0.972716        -1.620560
 H         1.553140        -1.636529         1.305906
 H         2.512614        -2.229164        -0.086762
 H         4.253752        -0.871820         1.830814
 H         4.364742         1.787222        -0.495909
 H         1.840463         1.923424        -1.278141
 H         2.548294         0.444716        -2.080792
 H         3.446678         1.508472         1.931192
