19
Iteration:  2411
 C        -0.024705        -0.374463        -0.581710
 C         1.477424        -0.005773        -0.117165
 C         2.239880        -1.308974         0.430953
 C         3.505735        -0.671385         0.949833
 O         4.473353        -0.223953        -0.184201
 C         3.662542         0.960905        -0.282066
 C         2.463980         0.667252        -1.134622
 C         3.026351         0.772972         1.167893
 O         1.604245         0.827941         1.124841
 H        -0.532096        -0.811486         0.280257
 H        -0.516917         0.604447        -0.905930
 H         0.178440        -0.955610        -1.508075
 H         1.774426        -1.999538         1.170333
 H         2.525971        -1.989171        -0.448365
 H         4.067319        -1.236296         1.669508
 H         4.265427         1.896839        -0.572363
 H         1.917692         1.546469        -1.687017
 H         2.742191         0.023275        -1.931395
 H         3.436681         1.548395         1.853793
