19
Iteration:  2444charge 0 multiplicity 1
 C         0.267203        -0.410406        -0.704099
 C         1.571198        -0.048071        -0.165272
 C         2.242037        -1.285474         0.573364
 C         3.522746        -0.720014         1.023794
 O         4.274943        -0.316111        -0.272268
 C         3.582500         0.920991        -0.307473
 C         2.310845         0.821132        -1.113123
 C         3.030502         0.806133         1.238390
 O         1.675324         0.847296         1.102425
 H        -0.559255        -0.898544        -0.173018
 H        -0.264147         0.598968        -0.873142
 H         0.222421        -0.999984        -1.668368
 H         1.784529        -1.626960         1.513948
 H         2.592621        -2.155288        -0.123716
 H         4.224285        -1.240211         1.612827
 H         4.324716         1.692893        -0.756155
 H         1.623549         1.776614        -0.993558
 H         2.456783         0.478006        -2.094292
 H         3.379680         1.636031         1.889806
