19
Iteration:  1290
 C         0.099872        -0.390060        -0.619169
 C         1.563943        -0.086276        -0.093815
 C         2.237631        -1.337481         0.357038
 C         3.554593        -0.606328         0.926122
 O         4.389913        -0.234140        -0.167578
 C         3.620033         1.004893        -0.307258
 C         2.374217         0.727937        -1.105107
 C         3.016962         0.817190         1.172326
 O         1.602211         0.783516         1.176479
 H        -0.399287        -0.945612         0.198383
 H        -0.307656         0.499859        -1.016126
 H         0.280312        -1.165326        -1.325185
 H         1.660357        -1.633163         1.165882
 H         2.583440        -2.160972        -0.400632
 H         4.159366        -1.311422         1.556671
 H         4.259028         1.752148        -0.643475
 H         1.695681         1.598897        -1.308433
 H         2.457682         0.336155        -2.162785
 H         3.444202         1.459028         2.000026
