19
Iteration:   814
 C         0.173198        -0.394761        -0.606259
 C         1.509261        -0.136292        -0.125909
 C         2.265196        -1.325057         0.495797
 C         3.554049        -0.635319         0.875308
 O         4.360279        -0.266308        -0.282582
 C         3.638143         1.023844        -0.238456
 C         2.398267         0.823042        -1.073143
 C         2.994844         0.786465         1.206401
 O         1.602395         0.801563         1.062717
 H        -0.350561        -1.070856         0.118477
 H        -0.389899         0.522787        -0.736524
 H         0.188494        -1.021961        -1.505137
 H         1.711893        -1.770437         1.377615
 H         2.397590        -2.205503        -0.078404
 H         4.173669        -1.155585         1.738356
 H         4.078302         1.917046        -0.536205
 H         1.894266         1.830215        -1.297475
 H         2.548294         0.070775        -1.944202
 H         3.265566         1.393704         2.132993
