19
Iteration:  1470charge 0 multiplicity 1
 C        -0.099084        -0.225486        -0.346179
 C         1.506728        -0.089121        -0.192672
 C         2.410055        -1.357425         0.241930
 C         3.521530        -0.629117         0.914928
 O         4.505492        -0.112234         0.038212
 C         3.584204         0.954453        -0.309511
 C         2.398168         0.609241        -1.194594
 C         3.021660         0.809661         1.134171
 O         1.609210         0.663473         0.989683
 H        -0.559965        -0.677737         0.538916
 H        -0.400800         0.800805        -0.635987
 H        -0.257728        -0.940094        -1.166786
 H         1.758607        -2.036888         0.874860
 H         2.786257        -1.920342        -0.551837
 H         3.981525        -1.090251         1.706928
 H         4.158244         1.922168        -0.596178
 H         1.960348         1.624078        -1.487436
 H         2.809962        -0.103602        -1.940873
 H         3.128420         1.509078         1.999097
