19
Iteration:  1394charge 0 multiplicity 1
 C         0.194357        -0.388678        -0.637131
 C         1.554270        -0.103721        -0.050192
 C         2.300910        -1.350218         0.464779
 C         3.538763        -0.672742         1.005777
 O         4.308422        -0.297198        -0.251175
 C         3.585648         1.036087        -0.296816
 C         2.336192         0.821556        -1.086157
 C         3.045022         0.831944         1.155674
 O         1.617803         0.774226         1.037675
 H        -0.349022        -0.984088         0.119875
 H        -0.403624         0.529871        -0.890711
 H         0.523952        -0.946477        -1.555438
 H         1.732300        -1.821306         1.350369
 H         2.439364        -2.138329        -0.280811
 H         4.069800        -1.108848         1.822871
 H         4.330710         1.893103        -0.572481
 H         1.801619         1.775508        -1.033150
 H         2.412549         0.385479        -2.072415
 H         3.273940         1.464586         2.015860
