19
Iteration:   844charge 0 multiplicity 1
 C         0.146919        -0.470699        -0.673743
 C         1.492319        -0.058839        -0.098606
 C         2.215930        -1.267807         0.383491
 C         3.575525        -0.651241         0.964773
 O         4.339347        -0.290607        -0.224430
 C         3.660074         0.988865        -0.282267
 C         2.267486         0.804809        -1.069611
 C         3.065567         0.842783         1.237091
 O         1.682197         0.795529         1.122541
 H        -0.412450        -1.027474         0.104434
 H        -0.415677         0.249912        -1.217756
 H         0.412542        -1.141040        -1.493881
 H         1.687819        -1.698219         1.234686
 H         2.521850        -2.117131        -0.345369
 H         4.126491        -1.225808         1.693196
 H         4.170733         1.987975        -0.556517
 H         1.891749         1.803131        -1.261589
 H         2.394244         0.137176        -1.964653
 H         3.506339         1.475633         2.069482
