19
Iteration:  3165
 C         0.184424        -0.345172        -0.711273
 C         1.509173         0.020696        -0.087694
 C         2.282361        -1.384470         0.439414
 C         3.571365        -0.687717         1.049466
 O         4.262880        -0.429696        -0.247270
 C         3.637017         0.967529        -0.265241
 C         2.349347         0.844468        -1.053678
 C         3.036978         0.899352         1.254525
 O         1.588874         0.805383         1.013607
 H        -0.469312        -0.787927         0.030537
 H        -0.246428         0.517743        -1.144707
 H         0.507749        -1.091594        -1.508902
 H         1.656875        -1.932829         1.197075
 H         2.704942        -2.161780        -0.169453
 H         4.321939        -1.048148         1.731659
 H         4.502974         1.668735        -0.466148
 H         1.955187         1.777739        -1.158689
 H         2.522453         0.376727        -2.040972
 H         3.372598         1.665746         1.924438
