19
Iteration:  4330
 C         0.225958        -0.287904        -0.721412
 C         1.459336         0.029373        -0.064113
 C         2.223548        -1.282355         0.352554
 C         3.540965        -0.737852         0.900551
 O         4.402217        -0.361952        -0.174895
 C         3.648891         0.939863        -0.271209
 C         2.370575         0.757694        -1.051752
 C         3.003401         0.777569         1.204692
 O         1.580990         0.832624         1.192496
 H        -0.539073        -0.751539        -0.018516
 H        -0.300969         0.659511        -1.049242
 H         0.472995        -1.045580        -1.456164
 H         1.628983        -1.832191         1.133435
 H         2.416731        -1.824385        -0.624651
 H         4.089651        -1.274640         1.707784
 H         4.210704         1.863183        -0.719330
 H         1.891053         1.613666        -1.424021
 H         2.633528         0.133688        -1.865623
 H         3.406431         1.344619         2.014073
