19
Iteration:   722
 C         0.137350        -0.362011        -0.488913
 C         1.535037        -0.082864        -0.185634
 C         2.270197        -1.287665         0.433838
 C         3.532809        -0.693002         0.917533
 O         4.405172        -0.223811        -0.153094
 C         3.586276         1.038665        -0.255708
 C         2.378923         0.754667        -1.147089
 C         3.010507         0.791349         1.164175
 O         1.593331         0.740333         1.021884
 H        -0.293834        -0.692051         0.421134
 H        -0.367153         0.540854        -0.811470
 H        -0.008825        -1.147424        -1.203267
 H         1.744935        -1.785590         1.201024
 H         2.538312        -2.090289        -0.336147
 H         4.055213        -1.249359         1.613859
 H         4.355826         1.816292        -0.446350
 H         1.917608         1.700477        -1.441597
 H         2.621807         0.136322        -1.984023
 H         3.360428         1.373169         1.987487
