19
Iteration:  3855
 C         0.090323        -0.268596        -0.625844
 C         1.504119        -0.054391        -0.165858
 C         2.292629        -1.311190         0.403110
 C         3.515347        -0.654988         0.948568
 O         4.415899        -0.309572        -0.124142
 C         3.693563         0.871230        -0.226097
 C         2.409035         0.737276        -1.052783
 C         2.979694         0.819566         1.157195
 O         1.568515         0.802524         1.014211
 H        -0.554760        -0.660492         0.175042
 H        -0.279132         0.707330        -0.683273
 H         0.195725        -0.781022        -1.540921
 H         1.688074        -1.751589         1.242932
 H         2.351261        -2.128288        -0.360169
 H         4.081917        -1.203202         1.747872
 H         4.322107         1.634922        -0.638872
 H         2.021095         1.738375        -1.217337
 H         2.646615         0.287207        -2.111466
 H         3.274568         1.374363         2.047991
