19
Iteration:  1379charge 0 multiplicity 1
 C         0.079758        -0.374131        -0.557908
 C         1.477378        -0.076348        -0.134346
 C         2.330546        -1.312641         0.388660
 C         3.582924        -0.621698         0.926200
 O         4.413039        -0.228511        -0.149905
 C         3.634780         0.935900        -0.267426
 C         2.354209         0.717009        -1.092211
 C         2.999194         0.789193         1.181908
 O         1.586164         0.823164         1.075849
 H        -0.552427        -1.023062         0.023399
 H        -0.419578         0.541995        -0.818070
 H        -0.062627        -0.946716        -1.483473
 H         1.695078        -1.827735         1.119462
 H         2.693283        -2.015629        -0.335022
 H         4.302186        -1.211026         1.501986
 H         4.256779         1.826203        -0.506066
 H         1.768311         1.643669        -1.413518
 H         2.651327         0.191197        -2.029062
 H         3.489256         1.397009         1.954253
