19
Iteration:   835charge 0 multiplicity 1
 C         0.186020        -0.462340        -0.664440
 C         1.512955        -0.066231        -0.079882
 C         2.265643        -1.315279         0.455964
 C         3.564101        -0.750526         0.939839
 O         4.280722        -0.224735        -0.217745
 C         3.594215         1.039578        -0.220847
 C         2.329645         0.817438        -1.130652
 C         3.156541         0.757570         1.180793
 O         1.639647         0.876719         1.096371
 H        -0.449513        -1.176279        -0.104030
 H        -0.421848         0.282882        -1.082769
 H         0.570862        -1.158867        -1.387127
 H         1.580387        -1.707127         1.259439
 H         2.221610        -2.119251        -0.254650
 H         4.155503        -1.268145         1.787166
 H         4.285933         1.760937        -0.537795
 H         1.558852         1.626157        -1.103200
 H         2.338433         0.336840        -2.185180
 H         3.441382         1.530510         1.945340
