19
Iteration:   362
 C         0.106985        -0.322861        -0.514871
 C         1.549673        -0.114443        -0.157421
 C         2.287946        -1.300058         0.326021
 C         3.546682        -0.668894         0.923186
 O         4.384347        -0.221121        -0.119350
 C         3.620418         1.013045        -0.260928
 C         2.380870         0.766340        -1.152652
 C         3.057246         0.766897         1.158011
 O         1.560641         0.706401         1.099119
 H        -0.420103        -0.761898         0.345627
 H        -0.335722         0.690623        -0.638512
 H        -0.130086        -0.856038        -1.459316
 H         1.750718        -1.732493         1.149137
 H         2.497709        -2.103793        -0.458819
 H         4.096160        -1.196470         1.632687
 H         4.221386         1.871064        -0.530415
 H         1.925440         1.695486        -1.426369
 H         2.768126         0.319153        -2.013158
 H         3.223800         1.400434         2.030647
