19
Iteration:   519
 C         0.061551        -0.392682        -0.637739
 C         1.491637        -0.092544        -0.076828
 C         2.333574        -1.297268         0.411579
 C         3.531091        -0.655862         0.912706
 O         4.440654        -0.326025        -0.184936
 C         3.615631         0.968643        -0.240040
 C         2.319251         0.801386        -1.106769
 C         3.029486         0.807729         1.167867
 O         1.624350         0.857565         1.094438
 H        -0.608227        -1.027491         0.048713
 H        -0.481978         0.523968        -0.992286
 H         0.342603        -1.058999        -1.489248
 H         1.974384        -1.942314         1.351835
 H         2.623503        -1.929669        -0.448279
 H         4.009380        -1.226004         1.820006
 H         4.252646         1.811601        -0.486374
 H         1.750541         1.664314        -1.195610
 H         2.504666         0.267389        -2.059968
 H         3.321956         1.516397         1.894120
