19
Iteration:  3113charge 0 multiplicity 1
 C        -0.071916        -0.192616        -0.499155
 C         1.451357        -0.081476        -0.165830
 C         2.232674        -1.294351         0.325166
 C         3.531504        -0.702652         0.934415
 O         4.638219        -0.132703        -0.022909
 C         3.647950         0.936963        -0.242014
 C         2.458002         0.529955        -1.097154
 C         2.944638         0.683531         1.148651
 O         1.582699         0.852187         0.939232
 H        -0.439663        -0.955660         0.164613
 H        -0.679611         0.724366        -0.235146
 H        -0.213904        -0.417044        -1.612908
 H         1.751581        -1.876827         1.145278
 H         2.376168        -1.984823        -0.505499
 H         4.144702        -1.157006         1.738263
 H         4.178430         1.843724        -0.459290
 H         2.106608         1.506825        -1.483485
 H         2.721337        -0.171839        -2.036285
 H         3.509328         1.202907         1.937202
