19
Iteration:  1385
 C         0.130772        -0.368655        -0.572054
 C         1.527756        -0.078191        -0.115122
 C         2.320235        -1.342243         0.445198
 C         3.585278        -0.621046         0.912451
 O         4.334674        -0.250613        -0.182536
 C         3.660367         0.950312        -0.307645
 C         2.323136         0.761696        -1.053258
 C         3.025893         0.773066         1.196843
 O         1.587363         0.808309         1.044341
 H        -0.534187        -1.066463         0.019005
 H        -0.439861         0.539939        -0.906524
 H         0.338436        -0.948918        -1.532191
 H         1.657266        -1.787700         1.201043
 H         2.649518        -2.077510        -0.407370
 H         4.138856        -1.160642         1.785822
 H         4.214274         1.885332        -0.405183
 H         1.737882         1.614144        -1.281867
 H         2.550384         0.365616        -2.047022
 H         3.367718         1.588365         1.872999
