19
Iteration:  2245charge 0 multiplicity 1
 C        -0.084393        -0.280891        -0.453763
 C         1.410039        -0.060694        -0.139386
 C         2.285042        -1.354301         0.317310
 C         3.631492        -0.644168         0.946814
 O         4.573798        -0.177661        -0.040865
 C         3.638578         1.008052        -0.234358
 C         2.420225         0.603272        -1.186412
 C         2.976915         0.742702         1.122267
 O         1.613072         0.820956         0.992642
 H        -0.456743        -0.694715         0.478716
 H        -0.712179         0.620965        -0.698273
 H        -0.306661        -0.973654        -1.312071
 H         1.824859        -2.134353         1.034998
 H         2.502497        -1.912040        -0.541831
 H         3.978130        -1.310051         1.754800
 H         4.110772         1.972334        -0.435564
 H         1.985275         1.519854        -1.739073
 H         2.792376        -0.060392        -2.043133
 H         3.279861         1.291939         1.968050
