19
Iteration:  4201
 C         0.002204        -0.279646        -0.621201
 C         1.511590        -0.113700        -0.190734
 C         2.292456        -1.380365         0.353658
 C         3.543179        -0.712364         1.013856
 O         4.332425        -0.268581        -0.164822
 C         3.654377         0.993819        -0.195516
 C         2.493019         0.830757        -1.126654
 C         2.989085         0.761184         1.176374
 O         1.647844         0.784741         1.067285
 H        -0.501328        -1.072260        -0.039124
 H        -0.375192         0.670518        -0.323742
 H        -0.106877        -0.331868        -1.654104
 H         1.655881        -1.728810         1.161305
 H         2.560382        -2.306949        -0.150032
 H         4.028706        -1.098066         1.922192
 H         4.276766         1.815067        -0.616718
 H         2.111009         1.855977        -1.462835
 H         2.744450         0.275601        -2.084444
 H         3.405165         1.237381         2.052286
