19
Iteration:  3247
 C         0.045429        -0.114769        -0.415704
 C         1.455080        -0.170528        -0.208664
 C         2.342706        -1.417265         0.235745
 C         3.456633        -0.709573         1.068285
 O         4.493948        -0.155591         0.043075
 C         3.630660         0.975534        -0.237906
 C         2.378791         0.635059        -1.206268
 C         2.990618         0.844275         1.095485
 O         1.644768         0.697345         0.933815
 H        -0.531449        -0.529275         0.485854
 H        -0.172935         0.990454        -0.495379
 H        -0.344393        -0.679451        -1.242173
 H         1.719607        -1.992155         0.894703
 H         2.849441        -1.890578        -0.658586
 H         4.056096        -1.227041         1.845466
 H         4.283387         1.747406        -0.572495
 H         1.692872         1.549559        -1.541047
 H         2.746843         0.085734        -2.052915
 H         3.200699         1.534336         1.899068
