19
Iteration:  1692charge 0 multiplicity 1
 C         0.265046        -0.477368        -0.663597
 C         1.539740        -0.065835        -0.075020
 C         2.214165        -1.265943         0.455391
 C         3.511926        -0.730654         0.966142
 O         4.330193        -0.244443        -0.230498
 C         3.590865         1.036306        -0.301544
 C         2.281742         0.760323        -1.059737
 C         3.081231         0.798624         1.172584
 O         1.656197         0.844863         1.083030
 H        -0.315886        -1.099553         0.060583
 H        -0.334916         0.420634        -0.920471
 H         0.540648        -1.034590        -1.588909
 H         1.622780        -1.632131         1.218873
 H         2.304571        -2.230183        -0.225232
 H         4.047949        -1.305546         1.770586
 H         4.073383         1.928288        -0.487733
 H         1.757681         1.777705        -1.172095
 H         2.531070         0.366721        -2.083415
 H         3.488755         1.314839         2.019003
