19
Iteration:  1068charge 0 multiplicity 1
 C         0.047986        -0.245505        -0.356016
 C         1.512498        -0.159277        -0.192615
 C         2.329642        -1.362423         0.279992
 C         3.551241        -0.620458         0.933324
 O         4.538945        -0.149601        -0.088867
 C         3.569332         1.041384        -0.233270
 C         2.428668         0.598864        -1.162628
 C         2.983539         0.748004         1.171534
 O         1.532428         0.752354         0.967919
 H        -0.488342        -0.724902         0.410957
 H        -0.233055         0.821753        -0.385817
 H        -0.217090        -0.714526        -1.303080
 H         1.685649        -1.929660         1.039085
 H         2.635177        -1.960631        -0.644473
 H         3.934782        -1.338930         1.802689
 H         4.157953         1.910115        -0.434863
 H         1.783841         1.454273        -1.549905
 H         2.667960         0.078848        -2.092396
 H         3.176719         1.526582         1.970294
