19
Iteration:  1521charge 0 multiplicity 1
 C         0.057435        -0.369394        -0.536149
 C         1.496128        -0.084100        -0.079494
 C         2.272590        -1.314975         0.332334
 C         3.550429        -0.670568         0.966395
 O         4.457782        -0.154923        -0.102511
 C         3.620225         1.052410        -0.286712
 C         2.331479         0.667680        -1.129934
 C         3.050298         0.778024         1.121260
 O         1.636840         0.761830         1.043120
 H        -0.438238        -0.948008         0.216591
 H        -0.418199         0.595053        -0.787533
 H         0.061480        -0.978176        -1.456070
 H         1.691340        -1.897028         1.142206
 H         2.368004        -2.013861        -0.500396
 H         4.155469        -1.318138         1.671441
 H         4.200072         2.027295        -0.423701
 H         1.729802         1.545148        -1.514983
 H         2.758095         0.039213        -1.922704
 H         3.154888         1.308535         2.037561
