19
Iteration:    95
 C         0.125389        -0.379904        -0.695411
 C         1.559529        -0.126521        -0.112370
 C         2.233612        -1.323139         0.550020
 C         3.620323        -0.639650         0.946209
 O         4.304528        -0.299251        -0.277181
 C         3.643458         1.007464        -0.242389
 C         2.346328         0.804173        -1.106549
 C         3.022573         0.785277         1.184155
 O         1.611843         0.784778         1.098014
 H        -0.572520        -0.766145         0.045158
 H        -0.252609         0.636487        -1.036890
 H         0.243558        -1.047963        -1.585872
 H         1.744974        -1.689459         1.508849
 H         2.508140        -2.153887        -0.046061
 H         4.243776        -1.244723         1.621024
 H         4.304142         2.048732        -0.342346
 H         1.869716         1.757754        -1.192877
 H         2.723007         0.396365        -2.120636
 H         3.222897         1.531871         1.893145
