19
Iteration:  3420
 C         0.125112        -0.262412        -0.566399
 C         1.543911        -0.060134        -0.121890
 C         2.291069        -1.330565         0.354108
 C         3.499674        -0.690300         0.984875
 O         4.427085        -0.241616        -0.051955
 C         3.623021         0.931524        -0.293201
 C         2.341866         0.713083        -1.160128
 C         3.004658         0.768942         1.210339
 O         1.633250         0.783735         0.958961
 H        -0.561142        -0.581928         0.282615
 H        -0.374943         0.654036        -0.912843
 H        -0.027384        -0.920622        -1.392442
 H         1.638807        -1.654059         1.236922
 H         2.631023        -2.162964        -0.370310
 H         3.981965        -1.317970         1.805410
 H         4.174429         1.840189        -0.530757
 H         1.911223         1.716483        -1.236697
 H         2.475247         0.343596        -2.174431
 H         3.353269         1.339855         2.049982
