19
Iteration:  3389
 C        -0.118904        -0.189564        -0.440193
 C         1.494503        -0.063483        -0.115724
 C         2.306743        -1.384908         0.211117
 C         3.462574        -0.640774         0.907702
 O         4.534312        -0.121079        -0.025116
 C         3.721290         0.978067        -0.234923
 C         2.596635         0.541361        -1.225753
 C         2.949672         0.762037         1.177088
 O         1.534364         0.757927         1.035780
 H        -0.517381        -0.253275         0.655502
 H        -0.528684         0.740102        -0.844924
 H        -0.537510        -1.066965        -0.980519
 H         1.625252        -1.822987         0.996605
 H         2.667513        -2.051155        -0.659675
 H         3.994067        -1.327249         1.607109
 H         4.158409         1.900384        -0.582384
 H         2.336722         1.454017        -1.855008
 H         2.866676        -0.257000        -1.807628
 H         3.205163         1.240254         2.112884
