19
Iteration:  2495charge 0 multiplicity 1
 C         0.043901        -0.234332        -0.411519
 C         1.507257        -0.047408        -0.163699
 C         2.258337        -1.354170         0.239663
 C         3.571341        -0.694303         0.956328
 O         4.482355        -0.159315         0.005516
 C         3.563784         0.934192        -0.281368
 C         2.426892         0.567243        -1.208349
 C         3.028628         0.719427         1.154228
 O         1.570877         0.899252         1.029839
 H        -0.403057        -0.791000         0.393371
 H        -0.517060         0.674485        -0.743472
 H        -0.172990        -0.937349        -1.291680
 H         1.671123        -1.927243         1.006698
 H         2.493224        -1.928323        -0.617716
 H         4.209412        -1.335164         1.660402
 H         4.122588         1.875636        -0.462354
 H         1.884003         1.393604        -1.637482
 H         2.746725        -0.156909        -1.968556
 H         3.628863         1.387653         1.839670
