19
Iteration:  1952
 C        -0.028304        -0.274851        -0.477563
 C         1.423362        -0.123195        -0.178235
 C         2.331345        -1.323887         0.308545
 C         3.559518        -0.636876         0.917723
 O         4.542518        -0.166446        -0.086192
 C         3.628335         1.010878        -0.234148
 C         2.409399         0.595192        -1.124201
 C         2.979920         0.799412         1.107513
 O         1.588948         0.755779         1.053516
 H        -0.642331        -0.640602         0.382959
 H        -0.432613         0.748926        -0.523126
 H        -0.308006        -0.963287        -1.291636
 H         1.926776        -2.074035         1.029562
 H         2.697864        -1.860399        -0.528838
 H         4.044201        -1.279197         1.685932
 H         4.245667         2.036470        -0.411476
 H         2.052669         1.516519        -1.546984
 H         2.706381        -0.070337        -1.958715
 H         3.281056         1.372717         2.011783
