19
Iteration:  1600
 C         0.013634        -0.338367        -0.471228
 C         1.458640        -0.081805        -0.138350
 C         2.296630        -1.293975         0.302948
 C         3.618294        -0.596969         0.939774
 O         4.494278        -0.217229        -0.123188
 C         3.644482         1.012786        -0.224830
 C         2.384112         0.655651        -1.140502
 C         3.021829         0.804249         1.178437
 O         1.532476         0.722045         1.022484
 H        -0.535195        -0.704541         0.386391
 H        -0.475396         0.592141        -0.767300
 H        -0.043679        -0.994124        -1.335337
 H         1.874941        -1.922036         1.189613
 H         2.470448        -1.952506        -0.480299
 H         4.213331        -1.260935         1.516450
 H         4.296285         1.949244        -0.570101
 H         2.011443         1.625072        -1.617243
 H         2.634886        -0.008237        -2.005437
 H         3.189433         1.435156         2.103792
