19
Iteration:  2704
 C         0.055986        -0.334688        -0.571990
 C         1.531436        -0.085692        -0.151010
 C         2.250780        -1.324262         0.348229
 C         3.539758        -0.653249         0.925840
 O         4.387763        -0.298445        -0.177363
 C         3.686418         0.985564        -0.214828
 C         2.460626         0.724075        -1.075582
 C         3.021552         0.860329         1.139660
 O         1.560744         0.767221         1.099750
 H        -0.418757        -0.392638         0.386870
 H        -0.175763         0.649470        -1.056780
 H        -0.188014        -1.215369        -1.156411
 H         1.611415        -1.795037         1.053915
 H         2.517605        -1.953079        -0.541267
 H         3.988554        -1.193688         1.790271
 H         4.466094         1.753519        -0.523925
 H         1.847167         1.675882        -1.332765
 H         2.699591         0.139273        -1.923462
 H         3.232548         1.537772         1.904858
