19
Iteration:  1650charge 0 multiplicity 1
 C        -0.012678        -0.200904        -0.366162
 C         1.521463        -0.146348        -0.192261
 C         2.385180        -1.342116         0.278498
 C         3.526022        -0.651428         0.972624
 O         4.588844        -0.148357        -0.081708
 C         3.565836         1.005212        -0.241688
 C         2.414281         0.603525        -1.162861
 C         2.924360         0.785974         1.137563
 O         1.558942         0.718203         0.983575
 H        -0.552734        -0.575111         0.525913
 H        -0.350510         0.860703        -0.522015
 H        -0.365665        -0.839614        -1.224233
 H         1.871206        -1.975150         0.974413
 H         2.711740        -1.942619        -0.703584
 H         4.031510        -1.212005         1.821032
 H         4.076343         1.798289        -0.655720
 H         1.839350         1.438744        -1.516913
 H         2.643480         0.012399        -2.041712
 H         3.158976         1.444173         1.967236
