19
Iteration:  4454
 C         0.200248        -0.208824        -0.667785
 C         1.577501        -0.131406        -0.255149
 C         2.203150        -1.372314         0.444059
 C         3.529670        -0.685576         1.026192
 O         4.244558        -0.297769        -0.250311
 C         3.625157         1.004940        -0.137058
 C         2.370555         0.806101        -1.134265
 C         3.083983         0.787416         1.216195
 O         1.680044         0.745726         1.090284
 H        -0.484877        -0.459201         0.112656
 H        -0.081235         0.555201        -1.330448
 H         0.031017        -1.083693        -1.298485
 H         1.367627        -1.550161         1.153508
 H         2.364670        -2.311670        -0.068260
 H         4.023947        -1.281436         1.778377
 H         4.398405         1.758410        -0.309619
 H         1.712536         1.604453        -1.256166
 H         2.822716         0.577709        -2.131059
 H         3.284272         1.390232         2.164262
