19
Iteration:   377charge 0 multiplicity 1
 C         0.181288        -0.388412        -0.540149
 C         1.540860        -0.053922        -0.136017
 C         2.263913        -1.367886         0.458715
 C         3.521178        -0.720206         0.933383
 O         4.317489        -0.254247        -0.267627
 C         3.618405         1.050791        -0.234708
 C         2.444607         0.884242        -1.140387
 C         2.981654         0.794687         1.235535
 O         1.616691         0.756331         1.019893
 H        -0.387098        -1.043999         0.137987
 H        -0.495320         0.481143        -0.803591
 H         0.360777        -1.085601        -1.397446
 H         1.542918        -1.691026         1.312082
 H         2.437743        -2.274745        -0.226433
 H         4.139670        -1.346579         1.745951
 H         4.306922         1.877319        -0.357949
 H         1.765486         1.733258        -1.049631
 H         2.502051         0.438404        -2.180571
 H         3.570983         1.264912         2.023437
