19
Iteration:   496charge 0 multiplicity 1
 C         0.031576        -0.296700        -0.453696
 C         1.490278        -0.077921        -0.150972
 C         2.235125        -1.346604         0.237195
 C         3.560196        -0.620307         0.929539
 O         4.494681        -0.129609        -0.020509
 C         3.632898         0.908574        -0.289538
 C         2.392436         0.664470        -1.175884
 C         3.067827         0.785596         1.163284
 O         1.576765         0.771004         1.051994
 H        -0.389924        -0.840908         0.446127
 H        -0.523238         0.700964        -0.512737
 H        -0.106539        -0.965136        -1.348168
 H         1.598633        -2.044758         0.960734
 H         2.577295        -1.900366        -0.720240
 H         4.010265        -1.279448         1.766523
 H         4.142240         1.762796        -0.623102
 H         2.015041         1.566541        -1.539013
 H         2.637562        -0.074249        -1.936147
 H         3.290884         1.387249         2.048497
