19
Iteration:  1124
 C         0.211096        -0.467559        -0.685367
 C         1.538740        -0.030136        -0.119250
 C         2.336951        -1.353743         0.466259
 C         3.547988        -0.658534         0.910271
 O         4.302445        -0.278557        -0.225454
 C         3.602608         0.979155        -0.302233
 C         2.347238         0.820297        -1.040707
 C         3.038832         0.818908         1.161420
 O         1.585943         0.851382         1.182212
 H        -0.420497        -0.969307         0.017261
 H        -0.313357         0.365505        -1.151255
 H         0.369579        -1.115454        -1.531080
 H         1.637526        -1.775791         1.174661
 H         2.476158        -2.245946        -0.291527
 H         4.063142        -1.236121         1.774561
 H         4.262707         1.640238        -0.737254
 H         1.759839         1.780822        -0.976330
 H         2.404125         0.345381        -2.033605
 H         3.379208         1.524084         1.928558
