19
Iteration:  1187charge 0 multiplicity 1
 C        -0.070365        -0.243480        -0.352521
 C         1.458079        -0.121792        -0.170707
 C         2.284744        -1.364674         0.204818
 C         3.536781        -0.657479         0.906717
 O         4.587803        -0.064562         0.036048
 C         3.654955         1.061502        -0.261582
 C         2.416595         0.538209        -1.185030
 C         2.973926         0.746658         1.129433
 O         1.582978         0.715293         1.007304
 H        -0.639115        -0.670446         0.454102
 H        -0.340449         0.818009        -0.589262
 H        -0.286811        -0.934465        -1.186828
 H         1.899122        -2.108453         0.994858
 H         2.610726        -1.773145        -0.703039
 H         4.123171        -1.196198         1.765652
 H         4.014529         2.089069        -0.653854
 H         1.991452         1.360313        -1.767352
 H         2.712379        -0.117586        -1.979550
 H         3.444837         1.390486         1.885900
