19
Iteration:   603charge 0 multiplicity 1
 C         0.019840        -0.287642        -0.331529
 C         1.496297        -0.072605        -0.145016
 C         2.316011        -1.336405         0.180002
 C         3.541419        -0.641903         0.948430
 O         4.557860        -0.149984         0.075720
 C         3.638010         0.954924        -0.338388
 C         2.361675         0.613247        -1.203594
 C         3.020844         0.782184         1.086113
 O         1.548567         0.749856         1.046928
 H        -0.612054        -0.751136         0.410376
 H        -0.306695         0.737944        -0.568568
 H        -0.188487        -0.849779        -1.240710
 H         1.714173        -1.936924         0.754336
 H         2.592741        -1.907284        -0.794803
 H         3.787882        -1.107647         1.923264
 H         4.107618         1.814845        -0.787509
 H         1.906481         1.615593        -1.610785
 H         2.506101        -0.033793        -2.094417
 H         3.382689         1.453232         1.865773
