19
Iteration:  3052
 C         0.022771        -0.302555        -0.612978
 C         1.479927        -0.038236        -0.175698
 C         2.260444        -1.347983         0.427256
 C         3.646929        -0.721613         0.940299
 O         4.435989        -0.300548        -0.098906
 C         3.651146         0.955903        -0.249609
 C         2.402982         0.755774        -1.118978
 C         2.992938         0.770777         1.208933
 O         1.605741         0.864005         0.990985
 H        -0.661254        -0.615564         0.213764
 H        -0.450871         0.589628        -1.109992
 H         0.039198        -1.159438        -1.275087
 H         1.715161        -1.731982         1.286686
 H         2.424504        -2.213470        -0.300260
 H         4.022200        -1.284108         1.834650
 H         4.381428         1.784084        -0.479749
 H         1.735082         1.623491        -1.268323
 H         2.685845         0.340188        -2.025323
 H         3.274925         1.562125         1.980735
