19
Iteration:  1488charge 0 multiplicity 1
 C        -0.067214        -0.195473        -0.334121
 C         1.449088        -0.184703        -0.211064
 C         2.397017        -1.362724         0.203999
 C         3.621648        -0.601343         1.068830
 O         4.573167        -0.152607        -0.034368
 C         3.655963         1.009974        -0.263414
 C         2.423404         0.617330        -1.284027
 C         2.874474         0.783390         1.110120
 O         1.524707         0.696922         1.005808
 H        -0.318419        -0.453585         0.681280
 H        -0.309437         0.871770        -0.301896
 H        -0.608772        -0.792624        -1.069941
 H         1.890243        -2.098168         0.906651
 H         2.807192        -1.887201        -0.691354
 H         4.068599        -1.275186         1.879386
 H         4.081238         2.037484        -0.455713
 H         1.829160         1.542264        -1.669236
 H         2.849767         0.001243        -2.094916
 H         3.209918         1.319687         1.949093
