19
Iteration:   605
 C         0.024942        -0.270673        -0.325486
 C         1.496763        -0.075117        -0.160221
 C         2.326952        -1.334030         0.166748
 C         3.547516        -0.651072         0.970987
 O         4.554235        -0.136319         0.074119
 C         3.644215         0.961497        -0.373031
 C         2.373361         0.611966        -1.201569
 C         2.995369         0.775017         1.088772
 O         1.549538         0.748599         1.052104
 H        -0.596722        -0.801223         0.491363
 H        -0.334634         0.774933        -0.508618
 H        -0.235456        -0.885624        -1.223882
 H         1.701527        -1.964532         0.796338
 H         2.561608        -1.875858        -0.778783
 H         3.708812        -1.182725         2.014739
 H         4.121747         1.805201        -0.764486
 H         1.956817         1.551975        -1.611183
 H         2.506587        -0.035084        -2.116899
 H         3.363300         1.382098         1.856941
