19
Iteration:  4922
 C        -0.047922        -0.140605        -0.524394
 C         1.399358        -0.140352        -0.140821
 C         2.247373        -1.316286         0.301285
 C         3.485882        -0.637190         0.963503
 O         4.594406        -0.248029         0.087924
 C         3.741721         0.929898        -0.320768
 C         2.460249         0.549208        -1.114551
 C         3.019688         0.786202         1.127573
 O         1.565471         0.875319         0.982177
 H        -0.650331         0.312648         0.231609
 H        -0.193466         0.307445        -1.595597
 H        -0.335230        -1.195362        -0.706911
 H         1.635405        -1.945900         0.957250
 H         2.566239        -2.005917        -0.497149
 H         3.799818        -1.334395         1.735274
 H         4.162572         1.854439        -0.861950
 H         2.139492         1.294846        -1.790671
 H         2.699919        -0.268092        -1.878240
 H         3.263214         1.352836         1.955766
