19
Iteration:  3767
 C         0.169399        -0.265858        -0.649577
 C         1.556731        -0.106545        -0.126256
 C         2.218149        -1.321923         0.409840
 C         3.480141        -0.674070         0.978558
 O         4.336155        -0.321396        -0.113742
 C         3.642869         1.001830        -0.281304
 C         2.410710         0.750224        -1.128132
 C         3.046866         0.834728         1.178106
 O         1.628947         0.747692         1.065638
 H        -0.559060        -0.767344         0.089549
 H        -0.370131         0.671385        -0.883722
 H         0.131783        -0.897637        -1.538071
 H         1.616166        -1.623433         1.305072
 H         2.397573        -2.053861        -0.435871
 H         4.060988        -1.269001         1.738907
 H         4.312742         1.799278        -0.638811
 H         1.807967         1.679665        -1.086468
 H         2.729359         0.306653        -2.162800
 H         3.448124         1.482879         1.972513
