19
Iteration:  1484
 C        -0.053599        -0.191743        -0.326509
 C         1.421136        -0.192256        -0.206089
 C         2.382628        -1.335475         0.222010
 C         3.616809        -0.605310         1.061488
 O         4.564885        -0.142875        -0.017928
 C         3.644310         1.015576        -0.257820
 C         2.414362         0.655366        -1.251087
 C         2.890158         0.773463         1.110751
 O         1.549694         0.655106         0.966659
 H        -0.427513        -0.421662         0.731390
 H        -0.469709         0.838549        -0.348305
 H        -0.578791        -0.757897        -1.101333
 H         2.002433        -2.057064         0.879821
 H         2.923892        -1.870197        -0.714754
 H         4.037381        -1.304431         1.881370
 H         4.164321         1.873839        -0.565057
 H         2.009475         1.411029        -1.849834
 H         2.699666        -0.001336        -2.072884
 H         3.332848         1.430590         1.909626
