19
Iteration:  4854
 C         0.132704        -0.379936        -0.699447
 C         1.502344        -0.003445        -0.094851
 C         2.114785        -1.329241         0.476414
 C         3.502492        -0.732620         1.011926
 O         4.406234        -0.323777        -0.096975
 C         3.669017         0.911913        -0.303668
 C         2.423511         0.751321        -1.086009
 C         3.066898         0.821924         1.148105
 O         1.627673         0.941162         1.038888
 H        -0.779671         0.276333        -0.592246
 H         0.171416        -0.326051        -1.802239
 H        -0.278815        -1.392825        -0.436534
 H         1.521813        -1.874365         1.185383
 H         2.401212        -2.140332        -0.218792
 H         4.003754        -1.388717         1.673166
 H         4.436085         1.741311        -0.541272
 H         1.951804         1.653838        -1.341376
 H         2.711590         0.275980        -2.026251
 H         3.692022         1.596858         1.770066
