19
Iteration:  1471
 C        -0.100526        -0.217366        -0.336713
 C         1.501441        -0.096285        -0.197292
 C         2.408495        -1.349782         0.248966
 C         3.523274        -0.626797         0.915515
 O         4.508519        -0.111758         0.040167
 C         3.583323         0.956687        -0.307618
 C         2.398206         0.619614        -1.195723
 C         3.024463         0.803435         1.134796
 O         1.605483         0.653519         0.978913
 H        -0.573710        -0.687771         0.553512
 H        -0.402647         0.806802        -0.638402
 H        -0.278691        -0.929898        -1.159384
 H         1.789064        -2.039771         0.857774
 H         2.831880        -1.923673        -0.587082
 H         3.993361        -1.096108         1.732200
 H         4.170574         1.879552        -0.592513
 H         1.992896         1.600932        -1.524738
 H         2.790880        -0.116813        -1.913498
 H         3.117009         1.538279         1.987626
