19
Iteration:  1216
 C        -0.005776        -0.259994        -0.413510
 C         1.469705        -0.115722        -0.159867
 C         2.403166        -1.355848         0.305675
 C         3.573983        -0.670758         0.942219
 O         4.467404        -0.155155        -0.033766
 C         3.630479         0.988393        -0.313200
 C         2.386474         0.639661        -1.206827
 C         2.957706         0.792031         1.209273
 O         1.561410         0.742091         1.010554
 H        -0.530784        -0.953251         0.298258
 H        -0.309974         0.811685        -0.500276
 H        -0.056862        -0.786866        -1.425207
 H         1.852706        -2.025202         1.044596
 H         2.657925        -1.867643        -0.657012
 H         4.218391        -1.111200         1.639390
 H         4.315746         1.918856        -0.593508
 H         1.927125         1.604806        -1.499555
 H         2.496353         0.107252        -2.180187
 H         3.293957         1.470901         2.046883
