19
Iteration:  1111
 C         0.227933        -0.457394        -0.705996
 C         1.503846        -0.066043        -0.066381
 C         2.214219        -1.212112         0.435262
 C         3.572049        -0.664586         0.979617
 O         4.398087        -0.310274        -0.227802
 C         3.584067         0.979068        -0.290149
 C         2.246793         0.804020        -1.098487
 C         3.051705         0.806409         1.163788
 O         1.629854         0.781083         1.142871
 H        -0.292011        -1.006141         0.030138
 H        -0.441428         0.388890        -0.916212
 H         0.441602        -1.112223        -1.551360
 H         1.634473        -1.649682         1.325575
 H         2.480662        -1.884344        -0.376269
 H         4.313053        -1.133533         1.787516
 H         4.135669         1.926625        -0.394028
 H         1.765200         1.768590        -1.392617
 H         2.490392         0.350763        -2.055741
 H         3.531044         1.318941         2.053882
