19
Iteration:  2156charge 0 multiplicity 1
 C         0.255249        -0.511099        -0.685796
 C         1.482800        -0.053299        -0.041525
 C         2.190542        -1.333368         0.468106
 C         3.442219        -0.697813         0.983539
 O         4.352219        -0.271790        -0.245922
 C         3.653317         1.055445        -0.323518
 C         2.314526         0.836694        -1.096840
 C         3.112845         0.785188         1.143934
 O         1.661335         0.848637         1.157201
 H        -0.568487        -1.041927        -0.125621
 H        -0.362890         0.303850        -1.049455
 H         0.616856        -1.044077        -1.550910
 H         1.624401        -1.602969         1.467083
 H         2.225198        -2.090025        -0.252477
 H         4.026475        -1.395713         1.663495
 H         4.295449         1.851493        -0.508997
 H         1.792407         1.796368        -1.269423
 H         2.583333         0.214438        -2.098806
 H         3.447921         1.575593         1.935750
