19
Iteration:  4126
 C         0.007318        -0.152433        -0.550608
 C         1.520710        -0.086549        -0.146482
 C         2.280372        -1.362592         0.259078
 C         3.518128        -0.646286         0.927527
 O         4.490764        -0.226844        -0.040903
 C         3.630460         0.960265        -0.258819
 C         2.414631         0.672379        -1.103387
 C         2.975745         0.770322         1.183271
 O         1.581863         0.715753         1.053838
 H        -0.656570        -0.434331         0.382868
 H        -0.203837         0.865842        -0.900921
 H        -0.219111        -0.900312        -1.390111
 H         1.782905        -2.008168         0.976989
 H         2.759452        -1.976690        -0.511859
 H         3.942442        -1.300101         1.699650
 H         4.291860         1.782978        -0.516470
 H         2.115611         1.699877        -1.510912
 H         2.747662        -0.034828        -1.961172
 H         3.423444         1.394492         1.965268
