19
Iteration:  2940charge 0 multiplicity 1
 C        -0.101879        -0.227592        -0.413295
 C         1.453731         0.004199        -0.176835
 C         2.259156        -1.300995         0.191670
 C         3.557446        -0.703770         0.906765
 O         4.555923        -0.219025         0.079624
 C         3.551620         0.984941        -0.215914
 C         2.522156         0.496417        -1.259267
 C         3.086944         0.758227         1.176158
 O         1.585611         0.872149         1.013702
 H        -0.402226        -1.005437         0.253687
 H        -0.686823         0.749122        -0.243853
 H        -0.394333        -0.552032        -1.496012
 H         1.756326        -1.985661         0.896880
 H         2.582342        -1.677103        -0.748618
 H         3.890022        -1.317316         1.785419
 H         4.088642         1.864233        -0.489913
 H         2.060055         1.167486        -1.945437
 H         2.935280        -0.401479        -1.855527
 H         3.277516         1.352378         2.007704
