19
Iteration:  2102charge 0 multiplicity 1
 C         0.097459        -0.215352        -0.440340
 C         1.512185        -0.148517        -0.189907
 C         2.346717        -1.409529         0.357205
 C         3.528355        -0.652044         0.942994
 O         4.403546        -0.180223        -0.050958
 C         3.633058         1.007653        -0.310878
 C         2.401832         0.680655        -1.162474
 C         2.993686         0.826158         1.109742
 O         1.588610         0.729047         1.043539
 H        -0.448425        -0.713461         0.413541
 H        -0.500754         0.619509        -0.771388
 H        -0.259732        -0.817069        -1.283706
 H         1.696238        -2.010986         1.137170
 H         2.574045        -2.092807        -0.403482
 H         4.160399        -1.183104         1.685978
 H         4.165077         1.868322        -0.625371
 H         1.857855         1.639147        -1.359970
 H         2.709763         0.307615        -2.248718
 H         3.329534         1.307972         2.062855
