19
Iteration:  2228
 C        -0.055744        -0.215334        -0.337377
 C         1.461797        -0.107828        -0.163443
 C         2.349974        -1.299097         0.161990
 C         3.563836        -0.763461         0.871735
 O         4.586132        -0.052614         0.075713
 C         3.645545         0.900670        -0.283818
 C         2.452522         0.520720        -1.247185
 C         2.960573         0.837313         1.174756
 O         1.518333         0.790592         1.017043
 H        -0.674059        -0.535952         0.519973
 H        -0.515318         0.790018        -0.433740
 H        -0.332181        -0.834613        -1.197440
 H         1.829236        -1.712013         0.988527
 H         2.554093        -2.159214        -0.637079
 H         4.060949        -1.429609         1.577259
 H         4.125891         1.867178        -0.659838
 H         1.978915         1.351227        -1.790307
 H         2.686682        -0.276642        -1.859539
 H         3.393218         1.436642         2.054318
