19
Iteration:  3620charge 0 multiplicity 1
 C         0.033624        -0.296358        -0.702393
 C         1.457991        -0.043617        -0.114311
 C         2.261529        -1.378745         0.399242
 C         3.534674        -0.631282         1.019419
 O         4.398150        -0.312434        -0.100022
 C         3.622984         0.945550        -0.265890
 C         2.388803         0.758378        -1.109282
 C         3.085968         0.743798         1.154821
 O         1.673405         0.859599         1.060016
 H        -0.369441        -1.103432        -0.130097
 H        -0.740078         0.446272        -0.724718
 H         0.096617        -0.690365        -1.751030
 H         1.714945        -1.957035         1.206525
 H         2.648936        -2.023218        -0.414158
 H         4.110137        -1.107121         1.793129
 H         4.265986         1.825963        -0.411331
 H         1.815030         1.779054        -1.345056
 H         2.708148         0.259570        -2.000546
 H         3.295280         1.418139         2.004602
