19
Iteration:  3098charge 0 multiplicity 1
 C        -0.092910        -0.148657        -0.408033
 C         1.450542        -0.093772        -0.183432
 C         2.348356        -1.326942         0.214299
 C         3.535071        -0.691570         0.965417
 O         4.550836        -0.173081         0.088641
 C         3.627238         0.917929        -0.233820
 C         2.456229         0.538818        -1.300802
 C         3.016018         0.809023         1.152551
 O         1.574688         0.803012         1.003727
 H        -0.665424        -0.874687         0.263455
 H        -0.306650         0.845069        -0.184532
 H        -0.384002        -0.413837        -1.443032
 H         1.783951        -1.982116         0.916353
 H         2.646257        -1.984872        -0.634161
 H         3.912651        -1.435773         1.664814
 H         4.138421         1.915048        -0.570601
 H         2.104806         1.361581        -1.875296
 H         2.812972        -0.217031        -1.929067
 H         3.182480         1.427605         2.008567
