19
Iteration:    42charge 0 multiplicity 1
 C        -0.179725        -0.278445        -0.308436
 C         1.464716        -0.036324        -0.197493
 C         2.368037        -1.275144         0.181038
 C         3.544479        -0.647226         0.946901
 O         4.561219        -0.186267         0.001986
 C         3.685205         0.981826        -0.228718
 C         2.447461         0.592625        -1.213959
 C         3.000797         0.800557         1.144600
 O         1.552345         0.721009         0.964436
 H        -0.396302        -0.808343         0.628930
 H        -0.633496         0.755531        -0.447181
 H        -0.479610        -0.817694        -1.249181
 H         1.832376        -2.082939         0.880717
 H         2.717297        -1.961668        -0.569760
 H         3.930206        -1.103009         1.815328
 H         4.199310         1.814986        -0.643702
 H         2.167554         1.505665        -1.675334
 H         2.996417        -0.103751        -1.946010
 H         3.195637         1.367851         2.018739
