19
Iteration:  1011
 C         0.091727        -0.352925        -0.547709
 C         1.478216        -0.041995        -0.097271
 C         2.325265        -1.340176         0.349742
 C         3.564983        -0.701582         0.883234
 O         4.396723        -0.145256        -0.117829
 C         3.594995         1.021305        -0.277857
 C         2.336889         0.686272        -1.083373
 C         3.031345         0.747011         1.201822
 O         1.624118         0.772229         1.020516
 H        -0.458291        -0.695041         0.326243
 H        -0.401334         0.513013        -0.979283
 H         0.131547        -1.082994        -1.359992
 H         1.795925        -1.940631         1.236631
 H         2.490505        -1.961567        -0.503398
 H         4.151274        -1.256402         1.740284
 H         4.388210         1.829441        -0.475265
 H         1.884015         1.662776        -1.399548
 H         2.516428         0.050870        -1.974180
 H         3.401299         1.412597         1.965665
