19
Iteration:  3926charge 0 multiplicity 1
 C         0.013185        -0.236241        -0.495341
 C         1.530758        -0.122615        -0.151816
 C         2.231790        -1.387188         0.323743
 C         3.472895        -0.709451         0.935285
 O         4.427383        -0.222963        -0.065712
 C         3.678574         0.970966        -0.185251
 C         2.502244         0.769054        -1.158667
 C         3.008075         0.758432         1.150826
 O         1.615942         0.789397         0.939354
 H        -0.492303        -0.348306         0.490419
 H        -0.532877         0.684353        -0.989553
 H        -0.051813        -1.154229        -1.178525
 H         1.700200        -1.833194         1.158557
 H         2.381156        -2.193157        -0.379369
 H         4.046830        -1.077643         1.794208
 H         4.435181         1.791857        -0.361840
 H         1.943724         1.730756        -1.381998
 H         2.708286         0.252468        -2.032428
 H         3.236266         1.341648         2.035605
