19
Iteration:  1454charge 0 multiplicity 1
 C         0.086165        -0.314227        -0.488413
 C         1.473934        -0.169442        -0.132050
 C         2.269642        -1.364685         0.282949
 C         3.547199        -0.666976         0.936454
 O         4.509769        -0.134405        -0.083686
 C         3.609352         1.022518        -0.272571
 C         2.391865         0.640112        -1.156676
 C         2.998698         0.785706         1.137955
 O         1.573950         0.837542         1.099032
 H        -0.438687        -0.771274         0.375096
 H        -0.444732         0.583389        -0.780535
 H        -0.138911        -1.031182        -1.283388
 H         1.844275        -1.985771         1.060550
 H         2.524426        -2.045983        -0.642582
 H         4.065096        -1.281633         1.795493
 H         4.206636         1.849441        -0.596072
 H         1.861206         1.552689        -1.498591
 H         2.494568         0.082552        -2.116429
 H         3.482484         1.382586         1.916471
