19
Iteration:  1743
 C         0.141313        -0.288541        -0.522299
 C         1.520176        -0.112584        -0.224049
 C         2.306753        -1.389195         0.410170
 C         3.549184        -0.625840         0.942685
 O         4.391845        -0.197997        -0.102397
 C         3.589467         0.985697        -0.258019
 C         2.342111         0.711231        -1.139928
 C         3.024005         0.776977         1.149650
 O         1.582983         0.756082         1.052036
 H        -0.358027        -0.774027         0.335610
 H        -0.318650         0.675727        -0.696576
 H         0.084308        -1.029624        -1.328408
 H         1.783094        -2.103523         1.227103
 H         2.587584        -2.026984        -0.392845
 H         4.074234        -1.005678         1.789623
 H         4.163241         2.016217        -0.561172
 H         1.916228         1.674901        -1.452549
 H         2.648893         0.322488        -2.137977
 H         3.458146         1.401382         1.887684
