19
Iteration:  3646charge 0 multiplicity 1
 C         0.072517        -0.201145        -0.499630
 C         1.495377        -0.095942        -0.179027
 C         2.232697        -1.293038         0.277416
 C         3.514223        -0.700163         0.903068
 O         4.541363        -0.164040         0.008223
 C         3.647948         0.912469        -0.279032
 C         2.488355         0.618227        -1.177567
 C         2.960410         0.759667         1.141665
 O         1.530227         0.771766         1.042492
 H        -0.404279        -0.941109         0.197220
 H        -0.362985         0.762737        -0.062589
 H        -0.379653        -0.315019        -1.464167
 H         1.778312        -1.562726         1.239894
 H         2.298321        -2.085225        -0.476408
 H         3.984090        -1.398727         1.613183
 H         4.239364         1.847704        -0.458829
 H         2.055231         1.484473        -1.593825
 H         2.876217        -0.172219        -1.844320
 H         3.151131         1.430213         1.957338
