19
Iteration:  4214charge 0 multiplicity 1
 C         0.047934        -0.141663        -0.552565
 C         1.519724        -0.081547        -0.197142
 C         2.306531        -1.361137         0.339895
 C         3.519475        -0.690159         0.941354
 O         4.509884        -0.250461        -0.048549
 C         3.655434         0.955730        -0.266031
 C         2.362095         0.698401        -1.127551
 C         3.025340         0.762060         1.182485
 O         1.550125         0.736393         1.037050
 H        -0.476253        -0.963176         0.011841
 H        -0.476684         0.767189        -0.398786
 H        -0.111741        -0.459114        -1.605606
 H         1.702258        -1.780949         1.108599
 H         2.463527        -2.004464        -0.491891
 H         4.024421        -1.320563         1.647681
 H         4.268364         1.793187        -0.364370
 H         1.740535         1.620323        -1.280460
 H         2.701421         0.207606        -2.106049
 H         3.285756         1.435896         1.982684
