19
Iteration:  1641charge 0 multiplicity 1
 C        -0.006374        -0.170764        -0.336864
 C         1.498611        -0.173921        -0.131573
 C         2.333607        -1.395596         0.207299
 C         3.587491        -0.667052         0.879764
 O         4.564603        -0.096763         0.055662
 C         3.577180         0.985382        -0.302690
 C         2.343583         0.580601        -1.233570
 C         2.930635         0.831414         1.197733
 O         1.598338         0.726208         0.955414
 H        -0.410757        -0.500895         0.594478
 H        -0.399767         0.851429        -0.541030
 H        -0.245670        -0.790903        -1.219766
 H         1.797877        -2.152434         0.858396
 H         2.717965        -2.040527        -0.584975
 H         4.040614        -1.302144         1.683729
 H         4.179834         1.889908        -0.601496
 H         1.810958         1.386139        -1.621943
 H         2.794078        -0.012524        -1.985665
 H         3.249770         1.496602         2.044329
