19
Iteration:  4644
 C        -0.085614        -0.181759        -0.459790
 C         1.481149        -0.102493        -0.240393
 C         2.253623        -1.290450         0.189863
 C         3.509654        -0.727355         0.919698
 O         4.549829        -0.225274         0.042636
 C         3.705275         0.918699        -0.244313
 C         2.447112         0.658554        -1.133416
 C         2.989012         0.811653         1.229654
 O         1.587458         0.747420         0.981695
 H        -0.299826        -1.242296        -0.289407
 H        -0.569986         0.392227         0.360981
 H        -0.315962         0.338742        -1.367804
 H         1.567245        -1.929796         0.756733
 H         2.608408        -1.978522        -0.571142
 H         3.791795        -1.322251         1.844589
 H         4.368962         1.684559        -0.673346
 H         2.062363         1.608574        -1.378242
 H         2.905499         0.372968        -2.020993
 H         3.400854         1.450321         1.978266
