19
Iteration:  3159charge 0 multiplicity 1
 C         0.216492        -0.330812        -0.716016
 C         1.535393         0.016189        -0.134944
 C         2.277410        -1.352566         0.447317
 C         3.606351        -0.643150         1.077154
 O         4.227513        -0.421707        -0.264382
 C         3.613423         0.932140        -0.260411
 C         2.357299         0.792678        -1.067524
 C         3.043614         0.868768         1.229326
 O         1.603804         0.792662         1.059177
 H        -0.372119        -0.785082         0.104285
 H        -0.497906         0.531011        -1.100481
 H         0.397964        -0.860301        -1.641204
 H         1.613898        -1.865902         1.145296
 H         2.730417        -2.135237        -0.231196
 H         4.203117        -0.967806         2.009483
 H         4.309843         1.688249        -0.519223
 H         1.859905         1.882257        -1.266312
 H         2.699736         0.406615        -2.101441
 H         3.263385         1.540360         2.147062
