19
Iteration:   506
 C         0.042440        -0.360454        -0.528169
 C         1.443618        -0.020167        -0.088285
 C         2.302437        -1.308458         0.291734
 C         3.591079        -0.701542         0.997519
 O         4.495146        -0.227362        -0.100707
 C         3.634544         0.994140        -0.320441
 C         2.372939         0.660973        -1.083681
 C         3.016931         0.807215         1.136757
 O         1.573829         0.814716         1.057682
 H        -0.532079        -0.906861         0.252318
 H        -0.571685         0.566048        -0.805265
 H         0.036233        -0.931880        -1.493224
 H         1.549054        -1.922993         0.861615
 H         2.581087        -1.980810        -0.621060
 H         4.193026        -1.292906         1.773415
 H         4.176958         1.840712        -0.612122
 H         1.979391         1.619224        -1.350475
 H         2.530851         0.182400        -2.035314
 H         3.424234         1.346977         2.021409
