19
Iteration:  1770charge 0 multiplicity 1
 C        -0.129619        -0.223404        -0.337995
 C         1.448025        -0.163643        -0.207943
 C         2.355668        -1.306443         0.213715
 C         3.574753        -0.628500         0.931332
 O         4.535733        -0.093962         0.010739
 C         3.692881         0.994323        -0.228099
 C         2.411262         0.539087        -1.163149
 C         2.985239         0.797896         1.176680
 O         1.576093         0.693524         0.933641
 H        -0.731690        -0.463022         0.542628
 H        -0.260932         0.866893        -0.495599
 H        -0.425854        -0.912693        -1.152671
 H         1.962985        -1.977081         0.880339
 H         2.649395        -1.884716        -0.768558
 H         4.061826        -1.282888         1.718363
 H         4.148301         1.848753        -0.502024
 H         2.037940         1.422326        -1.783788
 H         2.769152        -0.115098        -1.971319
 H         3.259571         1.567086         1.972853
