19
Iteration:  3828charge 0 multiplicity 1
 C        -0.020638        -0.192487        -0.439955
 C         1.512424        -0.039054        -0.290041
 C         2.219871        -1.378763         0.304187
 C         3.463092        -0.689711         0.987226
 O         4.476452        -0.180446         0.024893
 C         3.660059         1.003861        -0.160643
 C         2.506747         0.593697        -1.287115
 C         3.016021         0.732891         1.144283
 O         1.619663         0.778262         0.995258
 H        -0.278396        -0.785191         0.419556
 H        -0.481955         0.777803         0.006967
 H        -0.391384        -0.521592        -1.481376
 H         1.638683        -2.077543         0.893858
 H         2.344619        -1.972716        -0.591100
 H         4.001823        -1.153841         1.814446
 H         4.313703         1.887421        -0.451434
 H         1.987858         1.402573        -1.901994
 H         2.947199         0.008722        -1.991602
 H         3.407164         1.280010         2.028697
