19
Iteration:  2625charge 0 multiplicity 1
 C         0.074360        -0.258052        -0.521082
 C         1.528014        -0.117567        -0.205080
 C         2.340280        -1.382274         0.374592
 C         3.543607        -0.670492         1.028476
 O         4.344056        -0.293226        -0.136417
 C         3.613379         0.973345        -0.234461
 C         2.384771         0.746822        -1.177164
 C         3.040426         0.822046         1.146646
 O         1.609674         0.807800         1.056509
 H        -0.470956        -0.845216         0.166168
 H        -0.398904         0.724517        -0.458609
 H         0.032014        -0.676871        -1.554041
 H         1.720288        -1.905664         1.156257
 H         2.624479        -2.141769        -0.313857
 H         4.100822        -1.398127         1.721745
 H         4.327260         1.774875        -0.444734
 H         1.906895         1.724028        -1.456987
 H         2.640617         0.273950        -2.201653
 H         3.273845         1.643509         1.885114
