19
Iteration:  4152charge 0 multiplicity 1
 C         0.051099        -0.359309        -0.741003
 C         1.467577        -0.034065        -0.087400
 C         2.181390        -1.277038         0.408249
 C         3.536280        -0.710985         0.941928
 O         4.449970        -0.292068        -0.117047
 C         3.640638         0.943205        -0.264948
 C         2.356836         0.812744        -1.113411
 C         3.083981         0.720573         1.201364
 O         1.645915         0.849381         1.129071
 H        -0.402921        -1.152704        -0.180990
 H        -0.635026         0.500661        -0.848974
 H         0.289941        -0.748327        -1.781536
 H         1.758962        -1.904156         1.221739
 H         2.477745        -1.945887        -0.409206
 H         3.980396        -1.370018         1.705703
 H         4.379043         1.708767        -0.497666
 H         1.983794         1.802467        -1.198490
 H         2.525671         0.496875        -2.105876
 H         3.609322         1.330023         1.935565
