19
Iteration:  3738charge 0 multiplicity 1
 C         0.131206        -0.405168        -0.784756
 C         1.509553         0.028305        -0.135537
 C         2.262752        -1.343892         0.487657
 C         3.522390        -0.729017         0.987387
 O         4.301872        -0.338803        -0.322860
 C         3.641179         0.987271        -0.168831
 C         2.428687         0.788852        -1.063022
 C         3.077367         0.735416         1.291716
 O         1.592530         0.924161         1.071703
 H        -0.607999        -0.584204         0.065939
 H        -0.495197         0.280944        -1.302806
 H         0.423386        -1.380247        -1.331405
 H         1.746010        -1.384684         1.401326
 H         2.343016        -2.175698        -0.185785
 H         4.161547        -1.284570         1.720973
 H         4.180828         1.875780        -0.426831
 H         1.946792         1.678160        -1.264479
 H         2.888996         0.345368        -2.016350
 H         3.535222         1.299178         2.141884
