19
Iteration:   213
 C         0.056284        -0.281013        -0.543196
 C         1.488978        -0.115002        -0.086978
 C         2.311134        -1.351145         0.383135
 C         3.552227        -0.658487         0.947068
 O         4.418442        -0.204221        -0.167829
 C         3.599031         1.066325        -0.233576
 C         2.431560         0.682614        -1.129794
 C         3.023178         0.752693         1.179650
 O         1.598574         0.758311         0.992198
 H        -0.533847        -0.646468         0.270436
 H        -0.327983         0.750513        -0.656128
 H         0.002170        -0.902539        -1.458968
 H         1.730523        -1.874025         1.146022
 H         2.568338        -2.081519        -0.391534
 H         4.063693        -1.446942         1.650868
 H         4.303546         1.914594        -0.317528
 H         1.765641         1.569856        -1.342050
 H         2.661852         0.036820        -2.084039
 H         3.261977         1.438338         1.957954
