19
Iteration:   843
 C         0.151855        -0.468669        -0.670659
 C         1.492602        -0.064845        -0.097049
 C         2.214941        -1.267438         0.388611
 C         3.580201        -0.664790         0.965802
 O         4.330897        -0.284553        -0.224012
 C         3.658091         0.990803        -0.273935
 C         2.270735         0.807090        -1.080596
 C         3.075975         0.836891         1.237437
 O         1.679906         0.803215         1.118974
 H        -0.405702        -1.053015         0.086232
 H        -0.432429         0.262121        -1.237461
 H         0.438669        -1.154123        -1.497869
 H         1.687601        -1.695315         1.226482
 H         2.499407        -2.152311        -0.350332
 H         4.105841        -1.203299         1.689191
 H         4.185286         2.020296        -0.568279
 H         1.859426         1.792961        -1.233122
 H         2.366432         0.145136        -1.951089
 H         3.504394         1.487952         2.047173
