19
Iteration:  4100charge 0 multiplicity 1
 C        -0.038307        -0.058064        -0.352813
 C         1.579284        -0.112978        -0.252783
 C         2.296193        -1.458141         0.215712
 C         3.538283        -0.752665         0.980603
 O         4.466737        -0.114431        -0.012418
 C         3.602109         1.049775        -0.155602
 C         2.452274         0.587872        -1.261933
 C         2.923521         0.730512         1.202248
 O         1.621001         0.720129         0.922440
 H        -0.495471         0.014875         0.573489
 H        -0.174729         0.858588        -0.974368
 H        -0.467630        -0.843733        -0.884686
 H         1.580228        -1.887829         0.939382
 H         2.676343        -2.200096        -0.513147
 H         4.098278        -1.400537         1.724145
 H         4.201433         2.040602        -0.220877
 H         2.016625         1.563684        -1.769196
 H         2.964289        -0.125809        -1.909460
 H         3.273211         1.226550         2.128858
