19
Iteration:  2466
 C         0.068740        -0.356837        -0.605109
 C         1.528720        -0.063839        -0.130700
 C         2.247621        -1.349409         0.487401
 C         3.572856        -0.560362         0.970559
 O         4.331743        -0.380856        -0.184119
 C         3.681428         0.984172        -0.287863
 C         2.396333         0.855482        -1.083906
 C         3.049328         0.799755         1.134296
 O         1.601710         0.747646         1.033768
 H        -0.615886        -0.964741        -0.017659
 H        -0.566389         0.550918        -0.854764
 H         0.336652        -0.975145        -1.495102
 H         1.702696        -1.644396         1.384820
 H         2.483934        -2.258859        -0.182962
 H         4.214240        -0.939939         1.728776
 H         4.487172         1.769225        -0.461331
 H         1.749939         1.781355        -1.239080
 H         2.631806         0.367190        -1.985472
 H         3.413467         1.508239         1.873436
