19
Iteration:  2899charge 0 multiplicity 1
 C         0.172453        -0.260779        -0.665972
 C         1.532135        -0.091313        -0.162229
 C         2.246284        -1.355936         0.508473
 C         3.523702        -0.650192         1.011527
 O         4.353693        -0.364593        -0.113192
 C         3.594902         1.007859        -0.335379
 C         2.360287         0.826805        -1.142230
 C         3.051853         0.826874         1.150821
 O         1.608730         0.692491         1.054605
 H        -0.270707        -0.712370         0.197107
 H        -0.259105         0.774033        -0.821493
 H         0.168300        -0.825237        -1.583295
 H         1.521735        -1.618689         1.318991
 H         2.448411        -2.267942        -0.147002
 H         4.060578        -1.180940         1.869004
 H         4.302368         1.807987        -0.727056
 H         1.888996         1.817202        -1.150299
 H         2.694300         0.612932        -2.084886
 H         3.578510         1.471488         1.848968
