19
Iteration:  3034charge 0 multiplicity 1
 C         0.130014        -0.421823        -0.740640
 C         1.459594         0.011588        -0.092985
 C         2.165114        -1.265671         0.510830
 C         3.469838        -0.736915         0.950697
 O         4.410128        -0.242759        -0.220081
 C         3.649656         0.960127        -0.233580
 C         2.396764         0.748458        -1.091753
 C         3.115031         0.760853         1.192783
 O         1.650180         0.862258         1.095821
 H        -0.713663        -0.689543        -0.026594
 H        -0.328562         0.228689        -1.413863
 H         0.252264        -1.338144        -1.357057
 H         1.554181        -1.448359         1.424400
 H         2.259713        -2.058595        -0.203301
 H         4.075627        -1.314771         1.624846
 H         4.236635         1.909097        -0.429572
 H         2.081865         1.715795        -1.464330
 H         2.630403         0.121423        -2.002333
 H         3.670413         1.063873         2.057107
