19
Iteration:  3499
 C         0.024940        -0.202379        -0.467467
 C         1.501992        -0.106255        -0.146705
 C         2.298987        -1.312245         0.308083
 C         3.505311        -0.661586         0.995527
 O         4.475080        -0.216770        -0.057320
 C         3.704317         0.958965        -0.255482
 C         2.446916         0.644466        -1.103635
 C         2.965299         0.774896         1.118833
 O         1.576013         0.760416         0.939885
 H        -0.632439        -0.841522         0.174094
 H        -0.500562         0.730243        -0.506888
 H        -0.219254        -0.683185        -1.433190
 H         1.629687        -1.883010         1.015364
 H         2.604336        -2.137786        -0.395679
 H         3.973715        -1.268884         1.778562
 H         4.242788         1.876567        -0.509124
 H         1.949282         1.578793        -1.480675
 H         2.729118         0.123679        -1.926186
 H         3.352629         1.430977         1.935203
