19
Iteration:  1173charge 0 multiplicity 1
 C         0.038747        -0.246704        -0.412357
 C         1.466646        -0.126090        -0.130065
 C         2.352594        -1.353607         0.258457
 C         3.561541        -0.665599         0.874008
 O         4.517010        -0.066980        -0.020833
 C         3.569386         0.960569        -0.293432
 C         2.442053         0.621100        -1.253668
 C         2.963106         0.801501         1.179837
 O         1.569207         0.730641         1.053539
 H        -0.346130        -0.565084         0.620511
 H        -0.527934         0.686178        -0.702165
 H        -0.191680        -1.019299        -1.229385
 H         1.678177        -1.911827         1.030967
 H         2.460848        -2.148693        -0.455427
 H         3.968594        -1.306338         1.607720
 H         4.376069         1.848986        -0.496913
 H         1.933235         1.513273        -1.598239
 H         2.782123        -0.092731        -2.011835
 H         3.078246         1.263854         2.200491
