19
Iteration:  3987charge 0 multiplicity 1
 C         0.002640        -0.190372        -0.615917
 C         1.495038        -0.123901        -0.158964
 C         2.239530        -1.370658         0.339394
 C         3.519467        -0.708601         0.972707
 O         4.492204        -0.189835        -0.055628
 C         3.613199         0.936475        -0.222726
 C         2.403411         0.696354        -1.145189
 C         3.035391         0.794055         1.197449
 O         1.652127         0.803620         1.038827
 H        -0.462790        -1.113268        -0.164131
 H        -0.420969         0.690748        -0.233427
 H        -0.200536        -0.295388        -1.693635
 H         1.541679        -1.875293         1.075617
 H         2.518967        -2.084049        -0.483986
 H         3.932443        -1.363490         1.750523
 H         4.227217         1.732638        -0.616608
 H         1.839784         1.502277        -1.614743
 H         2.817092         0.063329        -2.042652
 H         3.513802         1.299907         2.059016
