19
Iteration:   353charge 0 multiplicity 1
 C         0.029340        -0.240409        -0.513377
 C         1.457191        -0.081549        -0.195375
 C         2.311515        -1.328105         0.292479
 C         3.576930        -0.676821         0.945701
 O         4.501153        -0.184240        -0.114849
 C         3.623292         0.983363        -0.238122
 C         2.363917         0.690511        -1.118209
 C         2.945763         0.812326         1.156538
 O         1.629652         0.701079         1.086733
 H        -0.468842        -0.749557         0.322526
 H        -0.488334         0.760602        -0.598718
 H        -0.222837        -0.899781        -1.385730
 H         1.717008        -2.007861         0.951316
 H         2.808900        -1.977988        -0.558738
 H         4.142815        -1.150789         1.785471
 H         4.149069         1.816265        -0.566130
 H         1.897021         1.570592        -1.484501
 H         2.648732         0.000650        -1.868724
 H         3.346509         1.233104         2.061108
