19
Iteration:  1830
 C         0.059129        -0.413897        -0.644288
 C         1.514315        -0.136722        -0.131292
 C         2.323164        -1.355188         0.445749
 C         3.551357        -0.656708         1.049995
 O         4.350830        -0.298654        -0.280284
 C         3.645782         1.034593        -0.272881
 C         2.395122         0.821215        -1.089943
 C         3.049898         0.814324         1.202529
 O         1.574071         0.807061         1.062613
 H        -0.537935        -0.926881         0.165115
 H        -0.426304         0.508406        -0.972372
 H         0.055482        -0.994900        -1.567159
 H         1.731833        -1.799753         1.360644
 H         2.700560        -2.173764        -0.100394
 H         4.190022        -0.908149         1.874188
 H         4.297558         2.034479        -0.504210
 H         1.970458         1.773596        -1.197409
 H         2.619441         0.331280        -2.048841
 H         3.446876         1.500811         1.913712
