19
Iteration:  2516
 C        -0.129933        -0.134489        -0.329014
 C         1.472497        -0.081924        -0.178464
 C         2.345840        -1.339890         0.220183
 C         3.480070        -0.665398         0.960252
 O         4.627672        -0.117444         0.053170
 C         3.667737         0.971890        -0.286676
 C         2.414479         0.523864        -1.242375
 C         3.015662         0.796049         1.109851
 O         1.566518         0.715871         0.965195
 H        -0.649934        -0.482987         0.569276
 H        -0.515258         0.861825        -0.612580
 H        -0.509874        -0.896132        -1.085588
 H         1.855846        -2.000131         0.984993
 H         2.559248        -1.855118        -0.650181
 H         3.928118        -1.429870         1.722858
 H         4.199331         1.891719        -0.552960
 H         2.076900         1.421501        -1.758985
 H         2.739856        -0.347077        -1.917894
 H         3.335344         1.199541         2.125317
