19
Iteration:  2929
 C        -0.051619        -0.218130        -0.505854
 C         1.445815        -0.025546        -0.173014
 C         2.334175        -1.359918         0.254504
 C         3.523987        -0.721655         0.946629
 O         4.508596        -0.228557        -0.022808
 C         3.649584         0.958186        -0.235418
 C         2.427132         0.569871        -1.120752
 C         3.007483         0.793549         1.205542
 O         1.585123         0.897784         0.985098
 H        -0.430849        -0.927305         0.209096
 H        -0.687564         0.686716        -0.250656
 H        -0.339838        -0.663392        -1.525175
 H         1.798484        -2.009393         0.979957
 H         2.579696        -2.060954        -0.525302
 H         4.098864        -1.317970         1.685019
 H         4.226432         1.720122        -0.699717
 H         2.182318         1.441356        -1.687367
 H         2.931747        -0.145836        -1.841074
 H         3.418536         1.394824         1.964887
