19
Iteration:  3788
 C        -0.039532        -0.179977        -0.565550
 C         1.432888        -0.099606        -0.191308
 C         2.305384        -1.357362         0.310515
 C         3.556246        -0.696750         1.020793
 O         4.536311        -0.232707         0.006108
 C         3.666736         0.875490        -0.256187
 C         2.368173         0.690064        -1.193474
 C         3.000867         0.794351         1.113126
 O         1.616501         0.818038         1.031201
 H        -0.598062        -0.795705         0.194488
 H        -0.535984         0.781337        -0.413557
 H        -0.191317        -0.600621        -1.531036
 H         1.658441        -1.997046         0.984699
 H         2.851102        -1.914174        -0.520499
 H         3.961619        -1.161790         1.946138
 H         4.221568         1.807463        -0.468110
 H         2.056956         1.744071        -1.471143
 H         2.653410         0.009307        -2.059660
 H         3.307783         1.221316         2.051012
