19
Iteration:  1236
 C         0.133570        -0.368267        -0.577885
 C         1.579361        -0.078845        -0.137794
 C         2.276421        -1.342808         0.418518
 C         3.519280        -0.621557         0.978219
 O         4.401169        -0.243425        -0.205868
 C         3.583625         0.996792        -0.252482
 C         2.370276         0.777306        -1.101742
 C         3.004134         0.823009         1.127386
 O         1.603412         0.722877         1.085094
 H        -0.288110        -1.091474         0.157146
 H        -0.373122         0.585920        -0.590347
 H         0.014560        -0.936511        -1.510732
 H         1.678938        -1.707632         1.240516
 H         2.613087        -2.148434        -0.374992
 H         4.006774        -1.124935         1.809786
 H         4.162609         1.870821        -0.603059
 H         1.750371         1.664895        -1.377579
 H         2.710768         0.297556        -2.069413
 H         3.366443         1.464954         1.962793
