19
Iteration:  2701charge 0 multiplicity 1
 C         0.037880        -0.306966        -0.556180
 C         1.530977        -0.094078        -0.144078
 C         2.235518        -1.323796         0.325698
 C         3.523717        -0.649149         0.900746
 O         4.438409        -0.267473        -0.161334
 C         3.686659         0.964528        -0.206928
 C         2.449617         0.703507        -1.067796
 C         3.023753         0.851989         1.127342
 O         1.561996         0.770484         1.084874
 H        -0.509542        -0.374595         0.350655
 H        -0.238669         0.624531        -1.032773
 H        -0.149684        -1.242396        -1.114414
 H         1.584773        -1.813314         1.114114
 H         2.553978        -1.995975        -0.450074
 H         4.001532        -1.208037         1.751988
 H         4.386655         1.762715        -0.412029
 H         1.855637         1.614494        -1.346497
 H         2.691349         0.082581        -1.982726
 H         3.276940         1.523012         1.961134
