19
Iteration:  1686charge 0 multiplicity 1
 C         0.214178        -0.453943        -0.601950
 C         1.527282        -0.074911        -0.118764
 C         2.260785        -1.308447         0.444962
 C         3.515858        -0.732077         0.976565
 O         4.339473        -0.262924        -0.208568
 C         3.595559         1.064162        -0.292986
 C         2.303619         0.777168        -1.111160
 C         3.045896         0.832593         1.187158
 O         1.681314         0.802815         1.079291
 H        -0.390068        -1.070363         0.030290
 H        -0.311472         0.441264        -0.986340
 H         0.429547        -0.912673        -1.579453
 H         1.622856        -1.705045         1.369489
 H         2.253650        -2.046394        -0.314290
 H         4.002872        -1.342419         1.743442
 H         4.115306         2.052695        -0.699779
 H         1.803948         1.696872        -1.208646
 H         2.560907         0.337080        -2.045205
 H         3.339148         1.430979         2.116814
