19
Iteration:  4040charge 0 multiplicity 1
 C         0.148464        -0.390111        -0.733535
 C         1.523795        -0.047821        -0.114888
 C         2.255647        -1.284036         0.401273
 C         3.495831        -0.685512         1.009481
 O         4.265562        -0.363640        -0.173201
 C         3.616757         1.025714        -0.207078
 C         2.411703         0.804269        -1.064620
 C         3.073303         0.763434         1.168610
 O         1.701045         0.858737         1.104690
 H        -0.556077        -1.066769        -0.084978
 H        -0.507142         0.439489        -1.013737
 H         0.410958        -0.941113        -1.673308
 H         1.454536        -1.868019         0.900931
 H         2.677941        -1.964364        -0.369818
 H         3.884608        -1.202072         1.881424
 H         4.316945         1.751376        -0.538646
 H         1.828731         1.673138        -1.143120
 H         2.434737         0.500605        -2.177314
 H         3.598822         1.300888         1.973253
