19
Iteration:  1164charge 0 multiplicity 1
 C         0.067747        -0.284122        -0.470013
 C         1.510438        -0.116468        -0.212622
 C         2.352579        -1.345405         0.297317
 C         3.562576        -0.680490         0.939129
 O         4.456346        -0.152015        -0.105018
 C         3.571089         0.987954        -0.283008
 C         2.412597         0.675796        -1.157013
 C         2.967514         0.783491         1.188534
 O         1.550160         0.749380         1.064995
 H        -0.348119        -0.668956         0.466480
 H        -0.391312         0.698414        -0.765199
 H        -0.108079        -1.177553        -1.120563
 H         1.747697        -1.610652         1.257408
 H         2.585234        -2.136742        -0.325419
 H         4.181382        -1.276219         1.683775
 H         4.116877         2.033922        -0.445046
 H         1.991877         1.580394        -1.590550
 H         2.704899         0.120986        -2.031115
 H         3.395016         1.404546         2.042562
