19
Iteration:  2177
 C         0.118505        -0.329147        -0.617102
 C         1.504359        -0.067059        -0.157846
 C         2.323229        -1.300861         0.455570
 C         3.625333        -0.636818         0.916801
 O         4.349641        -0.286650        -0.196042
 C         3.607986         0.938047        -0.263926
 C         2.381100         0.731190        -1.069294
 C         2.994787         0.781834         1.221969
 O         1.591039         0.791167         1.041625
 H        -0.491876        -0.821993         0.181896
 H        -0.499771         0.524207        -0.835146
 H         0.081408        -0.925997        -1.494477
 H         1.725469        -1.734226         1.295496
 H         2.567933        -2.061820        -0.257350
 H         4.256694        -0.937238         1.785661
 H         4.158438         1.762375        -0.614767
 H         1.917874         1.698391        -1.171200
 H         2.540293         0.261551        -2.106836
 H         3.344074         1.527592         2.014118
