19
Iteration:   115charge 0 multiplicity 1
 C         0.123883        -0.376078        -0.666996
 C         1.512632        -0.060467        -0.134357
 C         2.320877        -1.372342         0.533884
 C         3.545503        -0.645014         0.976360
 O         4.252268        -0.328662        -0.283069
 C         3.632600         1.026225        -0.295304
 C         2.457900         0.881510        -1.120232
 C         3.045454         0.817859         1.220699
 O         1.581546         0.745775         1.092509
 H        -0.329624        -0.890212         0.146358
 H        -0.429630         0.471931        -1.090792
 H         0.337423        -1.073565        -1.490141
 H         1.706008        -1.557222         1.396019
 H         2.366895        -2.353573         0.095570
 H         4.356789        -1.039135         1.730760
 H         4.315256         2.064615        -0.531437
 H         1.836472         1.793682        -1.354074
 H         2.729587         0.171396        -1.990457
 H         3.412065         1.251220         2.127050
