19
Iteration:  4132
 C        -0.047725        -0.211466        -0.591606
 C         1.492070        -0.058277        -0.137929
 C         2.283801        -1.365663         0.258328
 C         3.503809        -0.662588         0.975683
 O         4.494592        -0.248581        -0.052265
 C         3.683557         0.972073        -0.256670
 C         2.380008         0.687145        -1.069815
 C         3.032115         0.814300         1.145126
 O         1.631115         0.712287         1.071763
 H        -0.759575        -0.518607         0.095195
 H        -0.363809         0.792791        -0.949532
 H        -0.051468        -0.821584        -1.459735
 H         1.626705        -1.916975         0.970579
 H         2.619356        -2.051621        -0.543935
 H         4.083060        -1.243038         1.721607
 H         4.308408         1.889663        -0.469776
 H         2.035981         1.636352        -1.521121
 H         2.590771         0.120891        -1.931390
 H         3.286971         1.357654         2.067871
