19
Iteration:  2439charge 0 multiplicity 1
 C         0.249059        -0.404692        -0.691946
 C         1.586600        -0.076875        -0.129015
 C         2.215485        -1.306994         0.526460
 C         3.516229        -0.655570         0.961965
 O         4.283186        -0.323812        -0.251509
 C         3.602594         0.939846        -0.306855
 C         2.288175         0.806287        -1.060288
 C         3.034471         0.800261         1.247498
 O         1.682457         0.867550         1.087029
 H        -0.552336        -0.902643        -0.125874
 H        -0.214586         0.543450        -0.934295
 H         0.498793        -0.941849        -1.641504
 H         1.725061        -1.678079         1.456529
 H         2.413483        -2.106846        -0.103993
 H         4.254832        -1.260134         1.599247
 H         4.294296         1.661592        -0.685228
 H         1.646415         1.617802        -1.163878
 H         2.481492         0.333220        -2.084019
 H         3.403769         1.581610         1.905555
