19
Iteration:  4796charge 0 multiplicity 1
 C        -0.020504        -0.065063        -0.445936
 C         1.523006        -0.162601        -0.232673
 C         2.253448        -1.439750         0.353233
 C         3.507651        -0.657075         0.955176
 O         4.484444        -0.223743         0.039797
 C         3.686958         1.005326        -0.245887
 C         2.518492         0.643664        -1.192142
 C         2.916061         0.719064         1.130053
 O         1.616200         0.767799         0.895118
 H        -0.232714         0.814700        -1.116118
 H        -0.467250        -0.989584        -0.810273
 H        -0.464411         0.209371         0.531578
 H         1.610661        -1.784222         1.188467
 H         2.620880        -2.184655        -0.350208
 H         3.861742        -1.202438         1.874669
 H         4.198311         1.911988        -0.561517
 H         1.833876         1.394927        -1.429589
 H         2.852806         0.099658        -2.008450
 H         3.275429         1.272785         2.019234
