19
Iteration:  1546charge 0 multiplicity 1
 C         0.154666        -0.473189        -0.715580
 C         1.468732        -0.062467        -0.104565
 C         2.329814        -1.275630         0.457260
 C         3.561133        -0.626777         0.941869
 O         4.333401        -0.262144        -0.248784
 C         3.606597         0.928297        -0.307324
 C         2.355363         0.790777        -1.041459
 C         3.036737         0.807304         1.159646
 O         1.593891         0.829312         1.192639
 H        -0.362148        -1.105640         0.022075
 H        -0.452002         0.371756        -1.083533
 H         0.397749        -1.062954        -1.611006
 H         1.914735        -1.675694         1.474263
 H         2.434101        -2.140998        -0.110502
 H         4.167946        -1.295516         1.467887
 H         4.241949         1.891149        -0.632319
 H         1.980226         1.920063        -1.223927
 H         2.694374         0.331985        -2.037310
 H         3.299646         1.408280         2.119679
