19
Iteration:  3220
 C        -0.027185        -0.177705        -0.440339
 C         1.423543        -0.080166        -0.148210
 C         2.352703        -1.338748         0.245725
 C         3.548190        -0.722634         0.907467
 O         4.499013        -0.175756         0.001160
 C         3.635101         0.990382        -0.227355
 C         2.533385         0.576210        -1.211673
 C         2.917961         0.756241         1.149564
 O         1.542959         0.793809         1.016382
 H        -0.573304        -0.239940         0.472963
 H        -0.215532         0.794486        -0.881173
 H        -0.406361        -1.115435        -0.953277
 H         1.829512        -1.960045         1.062582
 H         2.558092        -1.866196        -0.684126
 H         4.140429        -1.191669         1.688438
 H         4.337014         1.862010        -0.467265
 H         2.117870         1.388858        -1.703717
 H         2.966881        -0.135700        -2.001713
 H         3.282880         1.308053         2.049340
