19
Iteration:   794charge 0 multiplicity 1
 C        -0.001925        -0.304718        -0.516383
 C         1.504614        -0.098054        -0.126243
 C         2.338862        -1.309862         0.359862
 C         3.585710        -0.636859         0.984046
 O         4.412182        -0.198848        -0.107883
 C         3.619177         1.006661        -0.305381
 C         2.382805         0.686980        -1.186756
 C         3.026769         0.838979         1.129180
 O         1.587926         0.674544         1.067769
 H        -0.552523        -0.892943         0.267128
 H        -0.476098         0.741338        -0.584585
 H        -0.170748        -0.808063        -1.518496
 H         1.749027        -1.939948         1.144564
 H         2.639349        -2.015636        -0.345927
 H         4.225910        -1.316907         1.705990
 H         4.192118         1.934936        -0.464696
 H         1.859305         1.674524        -1.386177
 H         2.921325         0.184681        -2.061838
 H         3.452632         1.402609         1.988828
