19
Iteration:  4677charge 0 multiplicity 1
 C         0.062248        -0.108841        -0.552993
 C         1.465184        -0.039252        -0.122970
 C         2.288934        -1.336864         0.243719
 C         3.494467        -0.774316         0.928104
 O         4.511419        -0.190874        -0.000203
 C         3.588975         0.941965        -0.242680
 C         2.399389         0.597044        -1.201625
 C         3.024702         0.711026         1.216691
 O         1.597563         0.808026         1.068799
 H        -0.217257        -1.095955        -0.988701
 H        -0.731456         0.066861         0.177033
 H        -0.165980         0.476628        -1.446378
 H         1.702943        -1.896844         0.973712
 H         2.634544        -1.903700        -0.615945
 H         4.028176        -1.229385         1.776510
 H         4.217591         1.794581        -0.542671
 H         1.993799         1.486936        -1.602569
 H         2.823566        -0.037719        -1.908841
 H         3.400464         1.350061         2.032118
