19
Iteration:  4567
 C         0.082669        -0.215330        -0.682520
 C         1.442926        -0.014402        -0.069861
 C         2.227301        -1.409623         0.389238
 C         3.494330        -0.800779         0.959106
 O         4.462613        -0.252072        -0.124746
 C         3.627965         0.973451        -0.274215
 C         2.367805         0.786836        -1.169944
 C         3.046197         0.774517         1.193194
 O         1.640011         0.782673         1.104648
 H        -0.482730        -0.882664        -0.033821
 H        -0.226339         0.819463        -1.027525
 H         0.282657        -0.908045        -1.521536
 H         1.632318        -1.874185         1.199313
 H         2.659345        -2.174617        -0.293264
 H         4.083835        -1.354840         1.785149
 H         4.204090         1.913149        -0.279226
 H         1.984667         1.872486        -1.311406
 H         2.618481         0.318806        -2.112627
 H         3.444526         1.417568         1.942483
