19
Iteration:    18
 C         0.045438        -0.246966        -0.266230
 C         1.603740        -0.173906        -0.202120
 C         2.277249        -1.417338         0.270255
 C         3.529769        -0.739778         0.946654
 O         4.512732        -0.138097         0.004177
 C         3.562568         1.025927        -0.241734
 C         2.457262         0.686103        -1.280709
 C         2.939466         0.784299         1.128801
 O         1.553011         0.806300         0.917184
 H        -0.301506        -0.726810         0.661724
 H        -0.254739         0.828817        -0.337692
 H        -0.412772        -0.699502        -1.176700
 H         1.623458        -2.023978         0.986164
 H         2.441451        -2.135469        -0.535165
 H         3.966660        -1.370868         1.764675
 H         4.149515         1.974541        -0.474503
 H         1.876238         1.591159        -1.481595
 H         2.919302         0.226881        -2.209766
 H         3.273694         1.399304         1.961452
