19
Iteration:  2828charge 0 multiplicity 1
 C        -0.111700        -0.210794        -0.433296
 C         1.473112        -0.076812        -0.212579
 C         2.301600        -1.280248         0.292273
 C         3.555949        -0.678299         0.982446
 O         4.548045        -0.265487         0.025509
 C         3.590226         0.984138        -0.289444
 C         2.459500         0.698602        -1.217061
 C         3.024690         0.742994         1.150199
 O         1.581587         0.716944         1.001250
 H        -0.516342        -0.375931         0.641047
 H        -0.504845         0.653969        -0.937710
 H        -0.328674        -0.998260        -1.195302
 H         1.763327        -1.914203         1.003291
 H         2.686062        -1.940541        -0.461737
 H         4.072518        -1.219986         1.738704
 H         4.111741         1.859659        -0.630579
 H         2.157140         1.717563        -1.504308
 H         2.881034         0.122554        -2.129852
 H         3.400337         1.486771         1.943645
