19
Iteration:   323
 C        -0.060586        -0.156994        -0.415179
 C         1.396864        -0.199421        -0.118941
 C         2.364551        -1.359937         0.197791
 C         3.608728        -0.713325         0.840361
 O         4.582536        -0.053552         0.094104
 C         3.586900         0.960907        -0.268135
 C         2.391794         0.568396        -1.169945
 C         2.917627         0.775460         1.086160
 O         1.607942         0.777025         1.061376
 H        -0.611821        -0.478278         0.477259
 H        -0.112663         0.950815        -0.506008
 H        -0.319467        -0.591415        -1.406863
 H         1.906696        -2.190701         0.843800
 H         2.636426        -1.847600        -0.785104
 H         4.096490        -1.391550         1.718232
 H         4.137841         1.855176        -0.647393
 H         1.882132         1.436063        -1.712223
 H         2.722732        -0.160480        -2.071950
 H         3.460746         1.120157         1.949260
