19
Iteration:  2357charge 0 multiplicity 1
 C        -0.126331        -0.210606        -0.339200
 C         1.468510        -0.157947        -0.215095
 C         2.324185        -1.422783         0.192628
 C         3.585725        -0.584511         1.011194
 O         4.486866        -0.213191        -0.016315
 C         3.672251         0.998995        -0.252101
 C         2.484688         0.572795        -1.221997
 C         2.984443         0.857500         1.156654
 O         1.567959         0.762360         0.996285
 H        -0.453424        -0.579824         0.639514
 H        -0.205101         0.878535        -0.600384
 H        -0.517453        -0.824376        -1.201010
 H         1.811234        -2.086665         0.919980
 H         2.779416        -1.974394        -0.734776
 H         4.045580        -1.095192         1.836096
 H         4.258725         1.825471        -0.786981
 H         1.881198         1.585537        -1.505711
 H         2.848225         0.098134        -2.111233
 H         3.268601         1.516423         2.044881
