19
Iteration:  1510charge 0 multiplicity 1
 C         0.046468        -0.273586        -0.416551
 C         1.478310        -0.144498        -0.152444
 C         2.333425        -1.379397         0.272310
 C         3.532765        -0.662238         0.904036
 O         4.456618        -0.096976        -0.034230
 C         3.592888         1.006013        -0.252289
 C         2.413585         0.640925        -1.132337
 C         2.966280         0.799850         1.154801
 O         1.615001         0.746546         0.974528
 H        -0.443896        -0.709365         0.436014
 H        -0.434821         0.710102        -0.504639
 H        -0.101381        -0.901088        -1.307090
 H         1.875686        -1.972331         1.136524
 H         2.723584        -2.041992        -0.503854
 H         3.995875        -1.335359         1.688814
 H         4.116440         1.886962        -0.733327
 H         1.926456         1.573853        -1.554143
 H         2.688303        -0.016708        -1.982692
 H         3.458692         1.346798         1.912977
