19
Iteration:  2926
 C        -0.041157        -0.217909        -0.512434
 C         1.443961        -0.051443        -0.167207
 C         2.333338        -1.367627         0.278910
 C         3.523921        -0.717728         0.962557
 O         4.495182        -0.222428        -0.048946
 C         3.683552         0.936842        -0.252318
 C         2.421398         0.598357        -1.105095
 C         2.972909         0.802446         1.193868
 O         1.594544         0.889746         0.981458
 H        -0.430869        -0.953017         0.261668
 H        -0.590307         0.684614        -0.316223
 H        -0.217573        -0.617208        -1.551169
 H         1.757927        -1.970294         1.003281
 H         2.574724        -2.076354        -0.485087
 H         4.022988        -1.325804         1.687114
 H         4.254694         1.791536        -0.614868
 H         2.133778         1.554284        -1.626631
 H         2.869763        -0.145644        -1.897241
 H         3.449814         1.366262         2.004007
