19
Iteration:  2168charge 0 multiplicity 1
 C         0.182829        -0.393121        -0.653994
 C         1.541107        -0.049933        -0.072897
 C         2.234465        -1.266572         0.495714
 C         3.558375        -0.686320         0.958294
 O         4.379829        -0.294558        -0.244274
 C         3.606538         0.981032        -0.272856
 C         2.334090         0.784196        -1.068281
 C         3.076740         0.821436         1.147678
 O         1.567856         0.796695         1.075914
 H        -0.310864        -1.074680         0.069805
 H        -0.346122         0.497422        -1.029932
 H         0.345069        -1.050368        -1.539185
 H         1.489255        -1.784367         1.248057
 H         2.471740        -2.040485        -0.166491
 H         4.172152        -1.202970         1.762122
 H         4.216732         1.816620        -0.539482
 H         1.681571         1.694877        -1.256954
 H         2.509877         0.320170        -2.145777
 H         3.511996         1.278205         2.050716
