19
Iteration:  3224charge 0 multiplicity 1
 C        -0.016267        -0.160659        -0.420689
 C         1.439965        -0.117980        -0.164952
 C         2.373522        -1.394271         0.236822
 C         3.523890        -0.660289         0.904584
 O         4.501013        -0.182284         0.002937
 C         3.621311         1.000363        -0.222353
 C         2.565041         0.548753        -1.204491
 C         2.934945         0.733329         1.165712
 O         1.527311         0.814945         1.010090
 H        -0.516895        -0.197702         0.568709
 H        -0.285373         0.879147        -0.845689
 H        -0.481452        -0.950105        -0.981546
 H         1.761719        -2.003230         0.897465
 H         2.609702        -1.817591        -0.757613
 H         4.099881        -1.133575         1.736675
 H         4.168644         1.839365        -0.565920
 H         2.074807         1.464366        -1.638085
 H         2.864736        -0.149035        -2.030453
 H         3.258757         1.328336         2.038367
