19
Iteration:  4409
 C        -0.003305        -0.278334        -0.594506
 C         1.455283        -0.026251        -0.142062
 C         2.209586        -1.299740         0.164016
 C         3.527322        -0.725445         1.012165
 O         4.492489        -0.252148         0.002301
 C         3.624099         0.912116        -0.269930
 C         2.421519         0.669177        -1.090563
 C         3.094667         0.759313         1.208148
 O         1.648072         0.863326         1.069119
 H        -0.477618        -1.144310        -0.066270
 H        -0.549242         0.591474        -0.418498
 H        -0.191901        -0.455720        -1.651468
 H         1.488690        -1.916040         0.741188
 H         2.474114        -1.898254        -0.718391
 H         3.974317        -1.235489         1.834312
 H         4.003649         1.906423        -0.570524
 H         2.085689         1.571681        -1.459061
 H         2.604358         0.021769        -1.957560
 H         3.710241         1.425553         1.849057
