19
Iteration:  1140charge 0 multiplicity 1
 C         0.098530        -0.407450        -0.628651
 C         1.477518        -0.158029        -0.048545
 C         2.290078        -1.358414         0.446767
 C         3.547528        -0.639553         0.975631
 O         4.329791        -0.258044        -0.225302
 C         3.635389         1.039656        -0.294269
 C         2.374854         0.822064        -1.088712
 C         3.058309         0.846464         1.191920
 O         1.642729         0.771104         1.019288
 H        -0.603519        -0.909046         0.128166
 H        -0.318187         0.542324        -1.038313
 H         0.259733        -1.296436        -1.314498
 H         1.667156        -1.924148         1.246973
 H         2.650530        -1.981567        -0.377776
 H         4.167625        -1.087125         1.700324
 H         4.475916         1.900826        -0.328001
 H         1.784960         1.726057        -1.256717
 H         2.603215         0.527552        -2.129106
 H         3.278655         1.330513         2.175449
