19
Iteration:  1704charge 0 multiplicity 1
 C         0.223384        -0.501033        -0.739559
 C         1.498943        -0.017843        -0.046639
 C         2.218130        -1.311002         0.526119
 C         3.553739        -0.627480         0.882492
 O         4.338877        -0.259852        -0.262023
 C         3.598804         0.939558        -0.231521
 C         2.353708         0.823887        -1.038047
 C         3.104886         0.736153         1.159041
 O         1.575532         0.904532         1.133956
 H        -0.323089        -1.217838        -0.079002
 H        -0.550228         0.241208        -1.124308
 H         0.487558        -1.171290        -1.615082
 H         1.650575        -1.593745         1.341030
 H         2.499561        -2.129583        -0.330178
 H         4.304663        -1.147965         1.566589
 H         4.278816         1.636108        -0.441427
 H         1.683512         1.719260        -1.171158
 H         2.418051         0.248132        -1.977284
 H         3.612270         1.376787         1.903544
