19
Iteration:  2106
 C         0.096685        -0.255958        -0.454019
 C         1.534492        -0.120953        -0.143357
 C         2.335588        -1.401865         0.377920
 C         3.554982        -0.635761         0.931709
 O         4.402680        -0.212157        -0.090836
 C         3.602203         0.970076        -0.290915
 C         2.400798         0.723053        -1.150767
 C         2.967390         0.830658         1.111896
 O         1.591597         0.740643         1.032414
 H        -0.486384        -0.701020         0.347716
 H        -0.516629         0.625336        -0.824437
 H        -0.048908        -0.895303        -1.413055
 H         1.706255        -1.891808         1.130968
 H         2.562926        -2.125295        -0.447179
 H         4.167480        -1.131309         1.687930
 H         4.291847         1.858527        -0.567539
 H         1.908345         1.702474        -1.331540
 H         2.639961         0.295985        -2.091216
 H         3.277491         1.269357         2.017760
