19
Iteration:  4318
 C         0.097862        -0.344203        -0.764595
 C         1.471428         0.058471        -0.038531
 C         2.256940        -1.230860         0.359295
 C         3.497205        -0.705204         0.963139
 O         4.355391        -0.318133        -0.228597
 C         3.657363         0.900163        -0.225427
 C         2.385773         0.734859        -1.054810
 C         3.180554         0.779697         1.216921
 O         1.561127         0.827834         1.174032
 H        -0.633049        -0.769670        -0.042326
 H        -0.285844         0.348655        -1.637540
 H         0.400258        -1.168633        -1.448809
 H         1.655944        -1.936657         0.995156
 H         2.554779        -1.929955        -0.495801
 H         3.974452        -1.463380         1.651727
 H         4.421604         1.779818        -0.342652
 H         2.085416         1.749347        -1.131958
 H         2.370158         0.282387        -1.979870
 H         3.537746         1.416175         2.004119
