19
Iteration:  2914
 C         0.070113        -0.235402        -0.506983
 C         1.524768        -0.123960        -0.122023
 C         2.238039        -1.342848         0.394261
 C         3.500277        -0.666098         0.976840
 O         4.455641        -0.262498        -0.094866
 C         3.677910         0.933555        -0.268678
 C         2.449487         0.716852        -1.164191
 C         2.997543         0.786829         1.107692
 O         1.595911         0.802712         0.998814
 H        -0.631522        -0.949176         0.065743
 H        -0.318259         0.750959        -0.582319
 H         0.062825        -0.586992        -1.547799
 H         1.658215        -1.839700         1.175593
 H         2.542600        -1.980147        -0.443401
 H         3.959703        -1.167994         1.807934
 H         4.312635         1.844184        -0.378301
 H         1.791563         1.647491        -1.263183
 H         2.456602         0.198813        -2.191191
 H         3.164032         1.383836         2.053115
