19
Iteration:  2040charge 0 multiplicity 1
 C         0.048478        -0.341907        -0.504212
 C         1.457663        -0.137807        -0.147671
 C         2.230145        -1.337153         0.302799
 C         3.533292        -0.635642         0.959156
 O         4.478475        -0.188060        -0.095765
 C         3.603633         1.011746        -0.237848
 C         2.344559         0.664053        -1.148062
 C         3.075456         0.794308         1.140107
 O         1.651313         0.769229         1.050822
 H        -0.516997        -0.814405         0.318797
 H        -0.293177         0.731604        -0.701993
 H         0.224192        -0.881816        -1.488185
 H         1.688146        -1.821560         1.151364
 H         2.443310        -2.014240        -0.517826
 H         4.047897        -1.126345         1.802585
 H         4.048641         2.056068        -0.582611
 H         1.887058         1.607009        -1.464462
 H         2.798312         0.138982        -1.978724
 H         3.394240         1.387552         1.973328
