19
Iteration:  3141
 C         0.132772        -0.322866        -0.660332
 C         1.554551        -0.108416        -0.148622
 C         2.253673        -1.266050         0.459071
 C         3.458488        -0.690731         0.989001
 O         4.311659        -0.303808        -0.142975
 C         3.641165         1.012672        -0.286712
 C         2.427686         0.746855        -1.165617
 C         3.027153         0.801025         1.191702
 O         1.627063         0.786244         1.097354
 H        -0.480158        -1.057995        -0.068616
 H        -0.269173         0.645691        -0.582588
 H         0.198139        -0.638035        -1.708570
 H         1.659955        -1.690622         1.279492
 H         2.540541        -2.120875        -0.172798
 H         4.107500        -1.256651         1.623063
 H         4.458028         1.788166        -0.415526
 H         1.926665         1.675479        -1.423158
 H         2.633389         0.201780        -2.012746
 H         3.569432         1.437451         1.835018
