19
Iteration:  1180charge 0 multiplicity 1
 C        -0.028959        -0.257707        -0.366655
 C         1.508759        -0.090454        -0.117064
 C         2.282470        -1.367574         0.251574
 C         3.557467        -0.654268         0.866922
 O         4.556839        -0.055734         0.026771
 C         3.648221         1.024394        -0.263567
 C         2.427130         0.570709        -1.261292
 C         2.933418         0.766251         1.159574
 O         1.584468         0.705271         1.020516
 H        -0.603372        -0.534189         0.525587
 H        -0.450790         0.695396        -0.634604
 H        -0.257975        -0.869670        -1.210992
 H         1.904620        -2.048837         0.955657
 H         2.529240        -1.957252        -0.739656
 H         3.995914        -1.263714         1.669465
 H         4.069293         1.863862        -0.685625
 H         1.908871         1.455501        -1.701667
 H         2.781476        -0.162433        -2.032697
 H         3.241092         1.311717         2.032193
