19
Iteration:  4977
 C         0.138172        -0.262465        -0.592533
 C         1.527914        -0.072427        -0.111637
 C         2.235166        -1.365709         0.500144
 C         3.513972        -0.632862         1.033697
 O         4.291945        -0.410259        -0.100196
 C         3.734901         0.952073        -0.221534
 C         2.460084         0.712713        -1.223744
 C         3.082015         0.880647         1.180593
 O         1.555183         0.871326         0.896329
 H        -0.499032        -0.812100         0.102310
 H        -0.456439         0.719133        -0.695469
 H         0.126066        -1.014585        -1.392374
 H         1.521263        -1.784736         1.243093
 H         2.398692        -2.097780        -0.311323
 H         4.043551        -1.151814         1.849631
 H         4.433480         1.826257        -0.432156
 H         1.934070         1.526328        -1.542737
 H         2.712717         0.045851        -2.089700
 H         3.239528         1.596558         1.911900
