19
Iteration:  4627
 C         0.129192        -0.219409        -0.467962
 C         1.552010        -0.044287        -0.228290
 C         2.272491        -1.343841         0.293160
 C         3.460804        -0.730457         0.995525
 O         4.403763        -0.293749        -0.038309
 C         3.650461         0.975010        -0.211096
 C         2.457072         0.791162        -1.186525
 C         2.970890         0.706826         1.156445
 O         1.602664         0.783231         0.956005
 H        -0.368272        -1.202674        -0.265422
 H        -0.387172         0.347415         0.280353
 H        -0.316555         0.071217        -1.450871
 H         1.649918        -1.789783         1.098288
 H         2.565925        -2.121427        -0.434001
 H         4.077356        -1.251922         1.762015
 H         4.297147         1.867738        -0.248615
 H         1.980868         1.858165        -1.387664
 H         2.574989         0.245133        -2.193025
 H         3.225998         1.295330         2.099336
