19
Iteration:  1366charge 0 multiplicity 1
 C        -0.045740        -0.346157        -0.527537
 C         1.479421        -0.103707        -0.135301
 C         2.313804        -1.304884         0.312416
 C         3.567293        -0.702368         0.951987
 O         4.524574        -0.171524        -0.111118
 C         3.588291         1.029177        -0.272522
 C         2.403371         0.638617        -1.180352
 C         3.035054         0.810936         1.165285
 O         1.600156         0.787819         1.090448
 H        -0.413299        -0.801529         0.399833
 H        -0.538569         0.600708        -0.559818
 H        -0.016239        -0.893465        -1.430391
 H         1.853139        -1.839789         1.069699
 H         2.469874        -1.980193        -0.624933
 H         3.855074        -1.287245         1.958859
 H         4.065624         1.897753        -0.586030
 H         2.009923         1.594043        -1.574057
 H         2.682036        -0.034407        -2.036043
 H         3.259192         1.401548         2.109181
