19
Iteration:  3889
 C         0.173426        -0.360809        -0.774186
 C         1.460485         0.050479        -0.110114
 C         2.246838        -1.306353         0.457295
 C         3.520255        -0.732256         0.950560
 O         4.278693        -0.294317        -0.156782
 C         3.629092         0.908795        -0.236154
 C         2.324479         0.815504        -1.109779
 C         3.083799         0.779770         1.209899
 O         1.716525         0.814386         1.144583
 H        -0.721499        -0.702038        -0.278146
 H         0.006421         0.337236        -1.537323
 H         0.357650        -1.271727        -1.343673
 H         1.661864        -1.637347         1.342346
 H         2.406933        -2.028422        -0.363727
 H         3.943375        -1.113071         1.885537
 H         4.284295         1.676111        -0.579154
 H         1.913825         1.754470        -1.427262
 H         2.747405         0.178888        -1.998838
 H         3.527843         1.399797         2.015702
