19
Iteration:   295charge 0 multiplicity 1
 C        -0.004633        -0.263221        -0.450628
 C         1.476155        -0.113039        -0.152901
 C         2.292279        -1.332966         0.333001
 C         3.570075        -0.653826         0.966565
 O         4.426559        -0.179581        -0.125798
 C         3.597107         1.013834        -0.224711
 C         2.498500         0.735233        -1.212046
 C         2.975608         0.769040         1.140851
 O         1.602367         0.658874         1.025169
 H        -0.430961        -0.657280         0.492933
 H        -0.341032         0.751322        -0.613034
 H        -0.115163        -0.829143        -1.358359
 H         1.715180        -1.822843         1.109280
 H         2.632302        -2.076420        -0.375350
 H         4.066298        -1.137990         1.717726
 H         4.251125         1.914773        -0.418172
 H         1.998168         1.603455        -1.613543
 H         2.882076         0.252509        -2.049676
 H         3.331655         1.243631         2.077078
