19
Iteration:  2059
 C        -0.098425        -0.201727        -0.445007
 C         1.467882        -0.071251        -0.135056
 C         2.381946        -1.366880         0.260792
 C         3.582311        -0.727098         0.868394
 O         4.553500        -0.075780        -0.009187
 C         3.622374         1.002767        -0.302975
 C         2.468489         0.524006        -1.181137
 C         2.947010         0.749423         1.166201
 O         1.525717         0.810245         1.069388
 H        -0.359918        -0.687711         0.571449
 H        -0.665350         0.766469        -0.590887
 H        -0.340648        -0.793047        -1.378246
 H         1.967575        -2.120165         1.106910
 H         2.663638        -1.902790        -0.581611
 H         4.053942        -1.411806         1.607432
 H         4.323509         1.770943        -0.638292
 H         1.958503         1.406807        -1.629753
 H         2.618320        -0.307457        -2.010790
 H         3.371012         1.399469         1.972618
