19
Iteration:  1543charge 0 multiplicity 1
 C         0.132168        -0.466594        -0.702598
 C         1.451833        -0.057391        -0.113076
 C         2.308294        -1.283643         0.450685
 C         3.570042        -0.612981         0.922221
 O         4.369249        -0.257064        -0.248034
 C         3.595698         0.934530        -0.279846
 C         2.371435         0.785261        -1.081298
 C         3.024824         0.811694         1.190758
 O         1.586212         0.828221         1.193495
 H        -0.308680        -1.119694        -0.001648
 H        -0.419249         0.421975        -1.046701
 H         0.379902        -1.097183        -1.570688
 H         1.894510        -1.715053         1.461306
 H         2.530767        -2.167044        -0.130379
 H         4.157454        -1.346682         1.557633
 H         4.169989         1.861629        -0.682974
 H         2.011321         1.849224        -1.213114
 H         2.661794         0.256447        -1.998082
 H         3.491658         1.366639         2.020230
