19
Iteration:  2975charge 0 multiplicity 1
 C        -0.011977        -0.178947        -0.485558
 C         1.518105        -0.124828        -0.232037
 C         2.268435        -1.374728         0.364329
 C         3.577047        -0.673867         0.951109
 O         4.503549        -0.298350         0.010058
 C         3.651624         0.977984        -0.291658
 C         2.437937         0.681747        -1.145369
 C         2.967593         0.858909         1.133853
 O         1.576657         0.764275         0.939201
 H        -0.361105        -0.738151         0.377953
 H        -0.407197         0.881072        -0.337242
 H        -0.310044        -0.649283        -1.415085
 H         1.650372        -1.897165         1.095480
 H         2.468666        -2.225484        -0.352849
 H         3.928565        -1.236529         1.877876
 H         4.268139         1.886076        -0.524187
 H         1.884724         1.614932        -1.227573
 H         2.632834         0.296297        -2.088951
 H         3.376935         1.388786         2.028249
