19
Iteration:  1711charge 0 multiplicity 1
 C         0.142665        -0.519871        -0.741062
 C         1.430263        -0.006246        -0.084145
 C         2.287528        -1.318136         0.541996
 C         3.605245        -0.674516         0.884964
 O         4.347453        -0.322298        -0.284941
 C         3.657134         0.986398        -0.250643
 C         2.352087         0.828410        -1.056344
 C         3.055702         0.815121         1.215270
 O         1.575754         0.886197         1.162050
 H        -0.436744        -1.207314        -0.102653
 H        -0.491831         0.167996        -1.255108
 H         0.530873        -1.002357        -1.624616
 H         1.802135        -1.775186         1.459709
 H         2.300317        -2.026387        -0.246122
 H         4.201215        -1.176892         1.619571
 H         4.303648         1.893436        -0.612309
 H         1.920709         1.868735        -1.222367
 H         2.608338         0.261512        -1.999313
 H         3.433258         1.418535         1.995804
