19
Iteration:  2800charge 0 multiplicity 1
 C         0.029063        -0.102848        -0.337618
 C         1.538491        -0.213428        -0.191615
 C         2.352263        -1.426355         0.215730
 C         3.446318        -0.649568         0.964498
 O         4.443654        -0.149035         0.035626
 C         3.666437         0.936725        -0.263406
 C         2.419858         0.551187        -1.245922
 C         2.927891         0.808006         1.184015
 O         1.583829         0.794123         0.936779
 H        -0.385548        -0.649810         0.433625
 H        -0.103095         1.008661        -0.211466
 H        -0.279783        -0.375823        -1.369952
 H         1.979729        -2.202188         0.942042
 H         2.819363        -1.892157        -0.684131
 H         4.067488        -1.142183         1.777453
 H         4.206897         1.825889        -0.647454
 H         2.019943         1.580168        -1.382993
 H         2.699762         0.106054        -2.172155
 H         3.282946         1.346612         2.011751
