19
Iteration:   560
 C         0.214806        -0.374756        -0.626959
 C         1.526255        -0.095765        -0.077498
 C         2.247996        -1.330957         0.528030
 C         3.558610        -0.626797         0.902860
 O         4.293568        -0.291468        -0.268541
 C         3.591110         1.014615        -0.237876
 C         2.372886         0.798669        -1.146042
 C         3.037648         0.836415         1.192404
 O         1.596914         0.749465         1.066638
 H        -0.441458        -0.787110         0.152382
 H        -0.215296         0.594383        -1.006366
 H         0.294512        -1.166677        -1.378884
 H         1.738232        -1.561264         1.395472
 H         2.453139        -2.283869        -0.078998
 H         4.261981        -1.186334         1.590180
 H         4.294371         1.797622        -0.255859
 H         1.834015         1.729375        -1.488844
 H         2.788036         0.320981        -2.037287
 H         3.461158         1.332079         2.078498
