19
Iteration:  4387charge 0 multiplicity 1
 C         0.009840        -0.124726        -0.373463
 C         1.466042        -0.059687        -0.163576
 C         2.305622        -1.337184         0.155709
 C         3.439823        -0.703490         0.947371
 O         4.524256        -0.239419         0.074827
 C         3.746485         0.957449        -0.243062
 C         2.435509         0.626597        -1.267978
 C         2.947328         0.761429         1.164511
 O         1.563255         0.757580         1.006532
 H        -0.505552        -1.030478         0.045274
 H        -0.467945         0.754662        -0.056203
 H        -0.164016        -0.109920        -1.431307
 H         1.860407        -2.030796         0.907144
 H         2.699407        -2.011367        -0.613324
 H         3.946783        -1.194986         1.736929
 H         4.220829         1.903918        -0.613875
 H         2.047689         1.515407        -1.671954
 H         2.689472        -0.047997        -2.106471
 H         3.381370         1.289695         2.036186
