19
Iteration:  2594charge 0 multiplicity 1
 C         0.171189        -0.502025        -0.693385
 C         1.432490        -0.005747        -0.027539
 C         2.107306        -1.288079         0.506542
 C         3.519539        -0.704021         0.867426
 O         4.381039        -0.311875        -0.239006
 C         3.766547         1.031607        -0.281833
 C         2.380347         0.793002        -1.041832
 C         3.125743         0.786257         1.115829
 O         1.586344         0.889256         1.154591
 H        -0.350421        -1.258635        -0.175247
 H        -0.619675         0.243681        -1.109804
 H         0.415770        -0.870911        -1.743253
 H         1.700189        -1.614263         1.469467
 H         2.215919        -2.158112        -0.140389
 H         4.020930        -1.367402         1.673149
 H         4.655621         1.694755        -0.557879
 H         1.941817         1.827470        -1.210263
 H         2.474721         0.247379        -1.989789
 H         3.343049         1.466091         1.958375
