19
Iteration:  3092
 C        -0.075419        -0.117549        -0.384227
 C         1.501838        -0.119289        -0.196081
 C         2.356422        -1.364794         0.183456
 C         3.515735        -0.682533         1.000672
 O         4.508292        -0.210959         0.111449
 C         3.612684         0.966660        -0.262044
 C         2.432411         0.566707        -1.319499
 C         2.965546         0.868007         1.152596
 O         1.602510         0.753488         1.014702
 H        -0.479138        -0.793345         0.335438
 H        -0.458581         0.938890        -0.179434
 H        -0.256893        -0.469751        -1.424172
 H         1.786244        -2.047000         0.831441
 H         2.554006        -1.954243        -0.704009
 H         4.093639        -1.295511         1.728451
 H         4.237940         1.725805        -0.631223
 H         2.143183         1.430440        -1.976834
 H         2.906504        -0.305205        -1.958177
 H         3.305525         1.459154         2.031840
