19
Iteration:  4935
 C        -0.062374        -0.170167        -0.544747
 C         1.471346         0.025801        -0.180657
 C         2.239750        -1.294384         0.324093
 C         3.593251        -0.751269         1.022813
 O         4.604120        -0.250308         0.140444
 C         3.636612         0.926797        -0.311235
 C         2.388472         0.536909        -1.268921
 C         2.947242         0.788869         1.128000
 O         1.623249         0.826408         0.978635
 H        -0.709321         0.158457         0.278290
 H        -0.339742         0.570700        -1.359805
 H        -0.395305        -1.202804        -0.747427
 H         1.716023        -1.811707         1.159149
 H         2.405843        -1.923722        -0.549144
 H         4.072253        -1.182882         1.954193
 H         4.325290         1.708542        -0.710152
 H         1.956804         1.460412        -1.788672
 H         2.776072        -0.301925        -1.936082
 H         3.305283         1.332501         1.931075
