19
Iteration:  1874charge 0 multiplicity 1
 C         0.126201        -0.477312        -0.672736
 C         1.499006        -0.083088        -0.085467
 C         2.282405        -1.324435         0.446956
 C         3.508238        -0.676063         0.975843
 O         4.397115        -0.207892        -0.244079
 C         3.623772         0.942881        -0.245983
 C         2.327140         0.759899        -1.076463
 C         3.073719         0.792985         1.153166
 O         1.612253         0.896814         1.106062
 H        -0.475208        -1.019533         0.097188
 H        -0.304144         0.466498        -1.005812
 H         0.251839        -0.963384        -1.637301
 H         1.553640        -1.664179         1.282868
 H         2.460298        -1.969457        -0.329329
 H         4.102713        -1.261169         1.674818
 H         4.271755         1.926549        -0.399904
 H         1.755941         1.583550        -1.345892
 H         2.728881         0.161316        -1.919776
 H         3.532675         1.278080         2.011256
