19
Iteration:   968
 C         0.154763        -0.453254        -0.674958
 C         1.541233        -0.027596        -0.055620
 C         2.293548        -1.345983         0.472146
 C         3.595212        -0.638907         0.959440
 O         4.264554        -0.292044        -0.239338
 C         3.676526         1.007013        -0.276659
 C         2.370748         0.868820        -1.030131
 C         3.079304         0.820467         1.148098
 O         1.572158         0.761785         1.063538
 H        -0.336759        -1.058024         0.050543
 H        -0.577763         0.288828        -0.942820
 H         0.373424        -1.065013        -1.549469
 H         1.534784        -1.591541         1.329288
 H         2.517156        -2.128906        -0.196487
 H         4.324237        -1.364384         1.552425
 H         4.225230         1.876774        -0.607933
 H         1.683030         1.752392        -1.154860
 H         2.402929         0.438402        -2.052935
 H         3.245243         1.345404         2.040058
