19
Iteration:   749charge 0 multiplicity 1
 C        -0.110681        -0.290253        -0.337551
 C         1.451032        -0.117911        -0.170479
 C         2.322294        -1.324979         0.236862
 C         3.570047        -0.683047         0.875086
 O         4.559017        -0.112287         0.007690
 C         3.597886         1.005885        -0.275371
 C         2.478221         0.613011        -1.177365
 C         2.938059         0.792374         1.151481
 O         1.616017         0.751221         0.992206
 H        -0.605600        -0.695076         0.620419
 H        -0.472946         0.742577        -0.566956
 H        -0.435647        -0.882658        -1.235553
 H         1.889139        -2.104648         0.960956
 H         2.635224        -1.838063        -0.652446
 H         4.066227        -1.388614         1.710905
 H         4.319032         1.737847        -0.491151
 H         2.068875         1.569807        -1.660906
 H         2.797068        -0.128762        -2.025347
 H         3.294577         1.601849         1.874721
