19
Iteration:  2515charge 0 multiplicity 1
 C        -0.124605        -0.139443        -0.335052
 C         1.467438        -0.073094        -0.173498
 C         2.350116        -1.339619         0.221560
 C         3.481447        -0.674836         0.953230
 O         4.627556        -0.118261         0.056073
 C         3.657721         0.973933        -0.282545
 C         2.405607         0.527684        -1.249500
 C         3.010551         0.792599         1.111480
 O         1.579548         0.723638         0.966080
 H        -0.668973        -0.473602         0.582352
 H        -0.495556         0.839298        -0.576178
 H        -0.456375        -0.892389        -1.076618
 H         1.863188        -1.999488         0.978823
 H         2.559364        -1.868298        -0.646461
 H         3.903411        -1.420828         1.742461
 H         4.165628         1.867980        -0.546529
 H         2.106845         1.421480        -1.798440
 H         2.748173        -0.381183        -1.921076
 H         3.304289         1.194266         2.122082
