19
Iteration:  2675
 C        -0.082040        -0.181656        -0.483580
 C         1.475301        -0.035321        -0.156505
 C         2.261473        -1.366843         0.306698
 C         3.652597        -0.816146         0.894667
 O         4.586886        -0.040496         0.100766
 C         3.553753         0.974401        -0.288323
 C         2.373002         0.590763        -1.256843
 C         3.023438         0.632348         1.133117
 O         1.636626         0.825415         1.012534
 H        -0.648099        -0.195750         0.564982
 H        -0.376081         0.848752        -0.774580
 H        -0.404554        -1.032497        -1.103383
 H         1.703054        -1.891207         1.118439
 H         2.296760        -2.057067        -0.603268
 H         4.069484        -1.306657         1.732140
 H         4.202875         1.806409        -0.617100
 H         1.914869         1.395356        -1.760356
 H         2.614934        -0.149423        -2.040680
 H         3.286095         1.232883         2.046649
