19
Iteration:  2832charge 0 multiplicity 1
 C        -0.066632        -0.244753        -0.457403
 C         1.472645        -0.076522        -0.205816
 C         2.269693        -1.251939         0.296417
 C         3.560527        -0.667508         0.968739
 O         4.518675        -0.234596         0.011140
 C         3.593056         0.939114        -0.285072
 C         2.463485         0.700139        -1.250524
 C         3.046348         0.741443         1.173950
 O         1.611516         0.748199         1.043754
 H        -0.563224        -0.377893         0.469566
 H        -0.557370         0.592967        -1.037436
 H        -0.271285        -1.113385        -1.168203
 H         1.748056        -1.888972         1.068622
 H         2.504191        -1.983581        -0.500390
 H         4.012369        -1.350236         1.754750
 H         4.136264         1.845035        -0.556524
 H         2.089866         1.669213        -1.499069
 H         2.755621         0.151407        -2.127949
 H         3.313845         1.332530         2.001519
