19
Iteration:  1626
 C        -0.036027        -0.236007        -0.369404
 C         1.473178        -0.111036        -0.181355
 C         2.320696        -1.425681         0.194446
 C         3.514169        -0.697581         0.956669
 O         4.538559         0.009773         0.073692
 C         3.614126         1.027452        -0.280917
 C         2.406591         0.527692        -1.223604
 C         3.021158         0.729763         1.060584
 O         1.612286         0.779737         1.064470
 H        -0.570170        -0.555060         0.594272
 H        -0.399858         0.790263        -0.565908
 H        -0.378402        -0.910224        -1.190536
 H         1.896013        -2.039587         0.936893
 H         2.459171        -2.024019        -0.860898
 H         4.106493        -1.307068         1.676992
 H         4.077168         1.892717        -0.597775
 H         2.011515         1.479530        -1.710180
 H         2.489222        -0.206875        -2.071066
 H         3.449975         1.255015         1.870755
