19
Iteration:    22charge 0 multiplicity 1
 C         0.028453        -0.231014        -0.255347
 C         1.577844        -0.163172        -0.234172
 C         2.298528        -1.430568         0.267851
 C         3.526904        -0.715791         0.948433
 O         4.515102        -0.125966         0.012923
 C         3.586981         1.026739        -0.240914
 C         2.464958         0.676010        -1.261401
 C         2.921904         0.772023         1.124907
 O         1.570504         0.798102         0.900958
 H        -0.275922        -0.721908         0.672198
 H        -0.357747         0.813522        -0.246216
 H        -0.478353        -0.729328        -1.100378
 H         1.635084        -1.994134         0.997962
 H         2.519894        -2.116421        -0.557846
 H         3.884677        -1.371646         1.687780
 H         4.129013         1.868306        -0.401479
 H         1.910666         1.574955        -1.526704
 H         2.833656         0.150152        -2.158519
 H         3.283217         1.338840         1.976784
