19
Iteration:  4304
 C         0.015760        -0.415379        -0.750001
 C         1.475559        -0.041141        -0.128090
 C         2.196496        -1.305780         0.358017
 C         3.528007        -0.705142         0.996821
 O         4.354719        -0.346886        -0.169403
 C         3.687429         0.974035        -0.226110
 C         2.383575         0.916669        -1.039833
 C         3.104291         0.745334         1.219633
 O         1.712953         0.827559         1.103634
 H        -0.856110        -0.429114        -0.108308
 H        -0.268176         0.412674        -1.450812
 H         0.174175        -1.453167        -1.193868
 H         1.553967        -1.720494         1.133261
 H         2.488721        -1.959831        -0.455282
 H         4.132502        -1.215255         1.774064
 H         4.307339         1.773259        -0.551693
 H         1.784414         1.856751        -1.178630
 H         2.694608         0.509833        -2.017555
 H         3.529688         1.284096         2.103233
