19
Iteration:   810charge 0 multiplicity 1
 C         0.127630        -0.369206        -0.586334
 C         1.516625        -0.134507        -0.140650
 C         2.283144        -1.313919         0.475027
 C         3.567099        -0.629344         0.898824
 O         4.367552        -0.257558        -0.282030
 C         3.650108         1.024582        -0.217958
 C         2.414139         0.786051        -1.082772
 C         3.012674         0.797525         1.208302
 O         1.579239         0.765747         1.065979
 H        -0.373665        -1.040225         0.102154
 H        -0.456613         0.527418        -0.703340
 H         0.185416        -0.991984        -1.471486
 H         1.703826        -1.656048         1.315500
 H         2.386151        -2.264337        -0.179195
 H         4.083705        -1.045808         1.689175
 H         4.269918         1.924868        -0.594371
 H         1.863205         1.666127        -1.309560
 H         2.467291         0.138085        -1.939457
 H         3.182179         1.452242         2.052840
