19
Iteration:  1229charge 0 multiplicity 1
 C         0.143742        -0.329211        -0.512283
 C         1.565606        -0.102839        -0.082005
 C         2.295242        -1.315807         0.362007
 C         3.580583        -0.621084         0.994574
 O         4.399216        -0.211777        -0.149270
 C         3.613816         0.995379        -0.318683
 C         2.379263         0.755432        -1.146817
 C         2.985713         0.779563         1.111189
 O         1.556249         0.708799         1.043399
 H        -0.403957        -0.910076         0.261711
 H        -0.537387         0.588128        -0.533993
 H         0.026468        -0.790444        -1.544918
 H         1.618649        -1.862232         1.144715
 H         2.657458        -2.062697        -0.276448
 H         3.962634        -1.282720         1.765950
 H         4.258816         1.971072        -0.495780
 H         1.809372         1.665344        -1.337065
 H         2.631815         0.166877        -2.015556
 H         3.238692         1.401332         1.989928
