19
Iteration:  2734
 C         0.245795        -0.397396        -0.640983
 C         1.544736        -0.011166        -0.136826
 C         2.261239        -1.373960         0.505784
 C         3.505657        -0.689974         0.982169
 O         4.255742        -0.317821        -0.219002
 C         3.606817         0.939907        -0.189185
 C         2.301179         0.879260        -1.136258
 C         3.088598         0.774050         1.173630
 O         1.684665         0.850144         1.018820
 H        -0.321551        -0.964833         0.021982
 H        -0.285475         0.480445        -1.082983
 H         0.415858        -0.938630        -1.626719
 H         1.459012        -1.671429         1.269818
 H         2.444878        -2.249423        -0.129449
 H         4.063003        -1.194129         1.836923
 H         4.380995         1.676285        -0.332849
 H         1.679564         1.844221        -1.126941
 H         2.387676         0.414363        -2.146337
 H         3.396126         1.412490         1.980559
