19
Iteration:  1981
 C         0.217530        -0.440981        -0.646573
 C         1.483384         0.008394        -0.107719
 C         2.232060        -1.312047         0.468930
 C         3.531161        -0.711216         0.954859
 O         4.334285        -0.207186        -0.189378
 C         3.641306         1.002938        -0.304680
 C         2.274896         0.794106        -1.080457
 C         3.043511         0.795979         1.173892
 O         1.686542         0.774854         1.083341
 H        -0.397732        -1.080757         0.076518
 H        -0.381368         0.402546        -1.042649
 H         0.400087        -1.040618        -1.551999
 H         1.670705        -1.776849         1.354180
 H         2.393743        -2.141949        -0.201790
 H         4.182843        -1.314423         1.600874
 H         4.284617         1.789808        -0.549204
 H         1.953636         1.773142        -1.442493
 H         2.453584         0.117842        -1.989022
 H         3.334578         1.323570         2.107742
