19
Iteration:  4564
 C         0.068656        -0.215545        -0.663256
 C         1.453599        -0.013354        -0.092242
 C         2.251287        -1.420853         0.380433
 C         3.499205        -0.772275         0.953613
 O         4.442827        -0.245614        -0.121996
 C         3.642029         0.970195        -0.250809
 C         2.385357         0.785247        -1.172080
 C         3.036470         0.766858         1.196910
 O         1.645587         0.777968         1.089482
 H        -0.597470        -0.757635         0.012536
 H        -0.219628         0.803128        -0.973664
 H         0.212671        -0.960353        -1.458173
 H         1.599224        -1.853294         1.166486
 H         2.644227        -2.156442        -0.351221
 H         4.002299        -1.372561         1.773756
 H         4.226069         1.900570        -0.290895
 H         1.996319         1.717628        -1.278254
 H         2.580551         0.291237        -2.135801
 H         3.417218         1.440267         1.989648
