19
Iteration:  1358charge 0 multiplicity 1
 C        -0.038552        -0.267978        -0.396435
 C         1.478084        -0.060991        -0.143082
 C         2.286463        -1.355657         0.248553
 C         3.532037        -0.680883         0.929372
 O         4.554329        -0.107231        -0.026350
 C         3.623299         1.041242        -0.309431
 C         2.422558         0.580751        -1.186526
 C         3.020100         0.769423         1.162202
 O         1.617064         0.718355         1.038949
 H        -0.495148        -0.941733         0.321208
 H        -0.601253         0.632289        -0.652506
 H        -0.154114        -0.956688        -1.277749
 H         1.679578        -1.938034         1.010635
 H         2.446378        -1.933368        -0.611110
 H         3.781840        -1.126705         1.839767
 H         4.018717         2.097748        -0.441993
 H         1.871842         1.392554        -1.767549
 H         2.808614        -0.052149        -2.007044
 H         3.338178         1.514430         1.895634
