19
Iteration:  4768charge 0 multiplicity 1
 C        -0.020881        -0.202368        -0.598069
 C         1.466351         0.019917        -0.119540
 C         2.251750        -1.353014         0.316123
 C         3.541233        -0.736858         0.994174
 O         4.495904        -0.253789        -0.031643
 C         3.707323         0.909590        -0.234502
 C         2.483104         0.662775        -1.213735
 C         2.936810         0.764754         1.151204
 O         1.609718         0.831851         1.073095
 H        -0.142924         0.200312        -1.625643
 H        -0.168212        -1.270200        -0.622075
 H        -0.700273         0.364921         0.063791
 H         1.622891        -1.843031         1.051168
 H         2.522682        -1.971428        -0.551212
 H         3.952426        -1.344038         1.770975
 H         4.257418         1.830572        -0.537218
 H         1.908265         1.531022        -1.656066
 H         2.696535        -0.176676        -1.954314
 H         3.292919         1.428301         2.019130
