19
Iteration:  4307
 C         0.021645        -0.413844        -0.763291
 C         1.485014        -0.033137        -0.095432
 C         2.184639        -1.280886         0.336051
 C         3.521033        -0.696361         1.014329
 O         4.353476        -0.337885        -0.185539
 C         3.674026         0.950710        -0.219682
 C         2.385638         0.896774        -1.046717
 C         3.134159         0.747733         1.222959
 O         1.689192         0.828105         1.109161
 H        -0.920716        -0.544723        -0.159276
 H        -0.308190         0.430960        -1.506776
 H         0.160580        -1.407286        -1.187860
 H         1.594111        -1.740118         1.172841
 H         2.582019        -1.972682        -0.460792
 H         4.179945        -1.240625         1.753586
 H         4.418742         1.794123        -0.540398
 H         1.852545         1.809796        -1.151576
 H         2.627753         0.485327        -1.973918
 H         3.572060         1.263922         2.065106
