19
Iteration:  4103
 C        -0.006931        -0.043653        -0.356536
 C         1.611529        -0.110608        -0.249561
 C         2.317107        -1.436758         0.216480
 C         3.531152        -0.765890         1.002166
 O         4.461608        -0.123290        -0.020207
 C         3.600767         1.043322        -0.175814
 C         2.452793         0.560239        -1.263540
 C         2.901946         0.731603         1.181650
 O         1.595298         0.732374         0.955055
 H        -0.545568         0.013422         0.688487
 H        -0.153514         0.893886        -0.965600
 H        -0.439573        -0.872616        -0.922490
 H         1.620388        -1.884082         0.911751
 H         2.579381        -2.157258        -0.586681
 H         4.177625        -1.355407         1.696718
 H         4.141644         2.023417        -0.165749
 H         1.980538         1.519375        -1.763572
 H         2.981253        -0.034431        -2.120132
 H         3.164355         1.142259         2.172646
