19
Iteration:  4771
 C        -0.005405        -0.181447        -0.587125
 C         1.446035         0.007313        -0.145512
 C         2.261054        -1.341032         0.309802
 C         3.559668        -0.745408         1.005609
 O         4.505270        -0.238587        -0.035149
 C         3.696290         0.890753        -0.216476
 C         2.471555         0.641840        -1.216623
 C         2.939937         0.796456         1.170403
 O         1.606990         0.817422         1.043175
 H        -0.195776         0.287333        -1.524018
 H        -0.265975        -1.297683        -0.599489
 H        -0.640944         0.373991         0.099713
 H         1.613735        -1.792965         1.097884
 H         2.526280        -1.981934        -0.548215
 H         3.908608        -1.460161         1.803667
 H         4.180822         1.822984        -0.499323
 H         1.914023         1.564092        -1.619331
 H         2.745911        -0.176037        -1.989498
 H         3.308645         1.354020         1.976682
