19
Iteration:  2025charge 0 multiplicity 1
 C         0.157658        -0.358945        -0.614479
 C         1.568159        -0.045805        -0.107532
 C         2.310109        -1.304545         0.464568
 C         3.542253        -0.668301         0.964496
 O         4.350529        -0.290856        -0.183405
 C         3.596602         1.026955        -0.305148
 C         2.367767         0.802761        -1.100611
 C         3.022788         0.802798         1.157012
 O         1.604584         0.745329         1.054140
 H        -0.410137        -1.036314         0.118802
 H        -0.575921         0.431001        -0.820556
 H         0.156834        -1.080203        -1.440444
 H         1.593056        -1.789637         1.248938
 H         2.589125        -2.069346        -0.251187
 H         4.090342        -1.249857         1.728787
 H         4.290851         1.790430        -0.485541
 H         1.706005         1.685037        -1.227310
 H         2.448795         0.311806        -2.154938
 H         3.362872         1.453099         2.013658
