19
Iteration:   257
 C         0.256447        -0.469086        -0.643206
 C         1.528745        -0.028974        -0.039131
 C         2.210602        -1.256525         0.447054
 C         3.500065        -0.678293         0.916556
 O         4.336137        -0.283566        -0.207325
 C         3.583897         0.946043        -0.293870
 C         2.297101         0.843409        -1.021634
 C         3.072123         0.748222         1.142383
 O         1.667869         0.836992         1.094464
 H        -0.480734        -1.119012        -0.237644
 H        -0.339476         0.307315        -1.173348
 H         0.624748        -1.109873        -1.481882
 H         1.570092        -1.804945         1.172482
 H         2.333398        -1.861620        -0.500619
 H         4.117623        -1.251720         1.778267
 H         4.211230         1.830320        -0.569614
 H         1.897770         1.905422        -0.941688
 H         2.482934         0.436503        -2.140208
 H         3.444619         1.331772         1.970116
