19
Iteration:  1527
 C         0.074393        -0.408569        -0.584235
 C         1.516785        -0.073273        -0.095376
 C         2.253868        -1.303496         0.393071
 C         3.562995        -0.678811         0.931247
 O         4.473320        -0.191954        -0.153472
 C         3.603318         1.054185        -0.272136
 C         2.334109         0.684533        -1.136701
 C         3.076238         0.782001         1.167264
 O         1.606365         0.784801         1.102063
 H        -0.603395        -0.963322         0.134730
 H        -0.562893         0.439765        -0.877036
 H         0.165240        -0.953884        -1.536722
 H         1.607900        -1.776396         1.077851
 H         2.381037        -2.005787        -0.511674
 H         4.157000        -1.101000         1.756362
 H         4.210764         1.910748        -0.363410
 H         1.758416         1.497061        -1.535681
 H         2.603440         0.134489        -2.052753
 H         3.268436         1.431413         2.060134
