19
Iteration:  3246charge 0 multiplicity 1
 C         0.040248        -0.107543        -0.410157
 C         1.464303        -0.173935        -0.215036
 C         2.335482        -1.423643         0.224232
 C         3.453976        -0.707988         1.070293
 O         4.498532        -0.151490         0.037555
 C         3.630044         0.973696        -0.240666
 C         2.373768         0.629953        -1.197148
 C         2.984466         0.850480         1.098793
 O         1.645305         0.701503         0.931573
 H        -0.516294        -0.519941         0.472771
 H        -0.172355         1.016167        -0.501276
 H        -0.338233        -0.712696        -1.206358
 H         1.730415        -2.030731         0.905893
 H         2.887196        -1.892524        -0.647411
 H         4.036989        -1.238101         1.864890
 H         4.276191         1.757857        -0.539605
 H         1.717915         1.508112        -1.532151
 H         2.782858         0.062464        -2.054132
 H         3.224279         1.527674         1.930972
