19
Iteration:   125charge 0 multiplicity 1
 C         0.170311        -0.386540        -0.605281
 C         1.565676        -0.061708        -0.099396
 C         2.220711        -1.345698         0.465056
 C         3.566802        -0.634515         0.971444
 O         4.309551        -0.312701        -0.230679
 C         3.636401         1.051864        -0.266137
 C         2.336145         0.810097        -1.108509
 C         3.035199         0.781284         1.207334
 O         1.635817         0.765920         1.033693
 H        -0.512972        -0.880715         0.061993
 H        -0.376629         0.495241        -0.929463
 H         0.311357        -1.071996        -1.446046
 H         1.639920        -1.616766         1.302110
 H         2.539057        -2.171011        -0.184447
 H         4.120030        -1.275170         1.772309
 H         4.362005         1.918635        -0.523020
 H         1.872945         1.777214        -1.469930
 H         2.666199         0.301766        -2.068212
 H         3.190832         1.466974         2.024335
