19
Iteration:  4398
 C         0.002510        -0.168893        -0.494164
 C         1.490561        -0.029198        -0.186059
 C         2.254798        -1.321516         0.198055
 C         3.445797        -0.721613         0.953848
 O         4.508920        -0.184096         0.081498
 C         3.614378         0.906755        -0.270814
 C         2.431142         0.603934        -1.177897
 C         3.025236         0.765080         1.103637
 O         1.660337         0.800884         1.084231
 H        -0.268945        -1.084501         0.075985
 H        -0.527165         0.612395        -0.052816
 H        -0.245586        -0.350232        -1.530522
 H         1.652551        -2.130269         0.650741
 H         2.651991        -1.625658        -0.768787
 H         3.705565        -1.402027         1.723208
 H         4.343695         1.694877        -0.526108
 H         2.032210         1.495036        -1.552584
 H         2.726992        -0.071083        -1.997858
 H         3.367021         1.356918         1.978967
