19
Iteration:   576
 C         0.009277        -0.368374        -0.578723
 C         1.512272        -0.086180        -0.144891
 C         2.335196        -1.331999         0.410854
 C         3.602188        -0.687499         0.983134
 O         4.398856        -0.204372        -0.197033
 C         3.641956         1.004200        -0.278098
 C         2.411532         0.696668        -1.077398
 C         3.047446         0.746698         1.179096
 O         1.579251         0.854469         1.062986
 H        -0.665625        -0.775135         0.219580
 H        -0.469192         0.520029        -0.992356
 H        -0.030373        -1.036422        -1.468782
 H         1.634007        -1.878195         1.200931
 H         2.481260        -2.012856        -0.379941
 H         4.143474        -1.162005         1.846066
 H         4.136412         1.912441        -0.750331
 H         1.855586         1.584467        -1.306191
 H         2.575103         0.140562        -2.008327
 H         3.291334         1.401161         2.020442
