19
Iteration:  1700
 C         0.252075        -0.490601        -0.737874
 C         1.536415        -0.033803        -0.032591
 C         2.201589        -1.296559         0.480051
 C         3.533247        -0.648655         0.911946
 O         4.333571        -0.235352        -0.250531
 C         3.564323         0.937252        -0.249556
 C         2.335789         0.803321        -1.027260
 C         3.117679         0.733199         1.146166
 O         1.594433         0.896237         1.111759
 H        -0.282311        -1.186753        -0.051976
 H        -0.456238         0.271376        -0.951716
 H         0.494227        -1.181891        -1.514632
 H         1.521561        -1.574116         1.333737
 H         2.480762        -2.079003        -0.168658
 H         4.210148        -1.137963         1.564701
 H         4.362367         1.777079        -0.385948
 H         1.638023         1.686152        -1.179737
 H         2.387976         0.288817        -2.033984
 H         3.614207         1.293982         1.881160
