19
Iteration:  1884charge 0 multiplicity 1
 C         0.022410        -0.412295        -0.617075
 C         1.460191        -0.097434        -0.082931
 C         2.270376        -1.313829         0.422628
 C         3.573287        -0.680394         0.891415
 O         4.427767        -0.236011        -0.139529
 C         3.619240         1.020660        -0.242847
 C         2.402727         0.720064        -1.124155
 C         3.025764         0.799538         1.181059
 O         1.633392         0.859841         1.071202
 H        -0.664244        -1.031078         0.015998
 H        -0.595488         0.448070        -0.876335
 H         0.190376        -1.086927        -1.460077
 H         1.937955        -2.048368         1.201837
 H         2.482213        -1.916178        -0.353796
 H         4.167555        -1.179837         1.651235
 H         4.261676         1.919758        -0.467607
 H         1.928216         1.587446        -1.456607
 H         2.711317         0.187577        -2.048679
 H         3.428965         1.482233         1.916957
