19
Iteration:  3642charge 0 multiplicity 1
 C         0.046689        -0.227027        -0.513213
 C         1.500797        -0.088411        -0.171311
 C         2.249867        -1.246843         0.292386
 C         3.517326        -0.730392         0.928112
 O         4.543315        -0.178045        -0.019652
 C         3.661549         0.925518        -0.260043
 C         2.461859         0.615038        -1.172603
 C         2.974359         0.785270         1.166644
 O         1.533203         0.762140         1.037538
 H        -0.462121        -0.948915         0.070355
 H        -0.344384         0.711088        -0.127600
 H        -0.265368        -0.360941        -1.593911
 H         1.720529        -1.590076         1.253695
 H         2.261691        -2.079770        -0.425994
 H         3.976055        -1.408745         1.621107
 H         4.323303         1.773613        -0.506155
 H         2.025280         1.583414        -1.729624
 H         2.690981        -0.080206        -1.962681
 H         3.220605         1.431567         2.039450
