19
Iteration:  1185charge 0 multiplicity 1
 C        -0.056507        -0.249738        -0.351236
 C         1.484919        -0.103451        -0.150771
 C         2.276601        -1.367970         0.215308
 C         3.545312        -0.659147         0.893666
 O         4.577951        -0.061764         0.036605
 C         3.661037         1.049611        -0.256553
 C         2.418720         0.546656        -1.215739
 C         2.951057         0.748067         1.139690
 O         1.584299         0.707564         1.008915
 H        -0.678287        -0.636157         0.494746
 H        -0.368891         0.811893        -0.610000
 H        -0.290085        -0.942474        -1.226320
 H         1.922871        -2.120725         1.019494
 H         2.564544        -1.776647        -0.680959
 H         4.072813        -1.187621         1.701634
 H         4.019892         2.084867        -0.730252
 H         1.967854         1.377253        -1.758227
 H         2.728855        -0.121608        -2.003588
 H         3.410830         1.386508         1.941099
