19
Iteration:  2569
 C         0.149620        -0.398799        -0.659819
 C         1.513256        -0.037718        -0.117566
 C         2.218754        -1.269587         0.430434
 C         3.575530        -0.660975         0.972613
 O         4.306488        -0.306717        -0.223938
 C         3.593096         0.982478        -0.247438
 C         2.366076         0.722048        -1.102467
 C         3.062088         0.777836         1.200974
 O         1.677278         0.877400         1.119250
 H        -0.502062        -0.918449         0.052164
 H        -0.360312         0.406606        -1.108202
 H         0.238149        -1.050450        -1.535823
 H         1.615793        -1.734805         1.248624
 H         2.368303        -1.972332        -0.363407
 H         4.172278        -1.311269         1.683547
 H         4.258964         1.759217        -0.533407
 H         1.979385         1.688741        -1.436685
 H         2.667819         0.047068        -2.008923
 H         3.394360         1.350937         2.122657
