19
Iteration:  2808charge 0 multiplicity 1
 C        -0.014139        -0.078481        -0.334676
 C         1.495250        -0.184131        -0.221820
 C         2.415211        -1.466690         0.215640
 C         3.487801        -0.614587         1.000863
 O         4.501231        -0.189155         0.001110
 C         3.726051         0.924963        -0.230078
 C         2.420659         0.634677        -1.196561
 C         2.916862         0.839842         1.095259
 O         1.563940         0.752556         0.929220
 H        -0.393031        -0.554074         0.613562
 H        -0.369864         0.952923        -0.352960
 H        -0.590212        -0.507876        -1.249373
 H         1.914368        -2.230545         0.890396
 H         2.726593        -2.028605        -0.622679
 H         3.817327        -1.105303         1.917703
 H         4.307408         1.785197        -0.389703
 H         1.884208         1.471736        -1.461269
 H         2.614350        -0.033209        -2.093059
 H         2.995494         1.341893         2.076870
