19
Iteration:  2545
 C         0.052361        -0.174004        -0.449720
 C         1.542020        -0.136604        -0.173526
 C         2.329176        -1.424982         0.366345
 C         3.521853        -0.647702         1.006486
 O         4.471930        -0.250240        -0.074198
 C         3.600835         0.959873        -0.288916
 C         2.382711         0.723761        -1.181010
 C         2.978989         0.847454         1.110234
 O         1.594788         0.733595         0.995799
 H        -0.552957        -0.470513         0.449734
 H        -0.266052         0.737249        -0.881005
 H        -0.247564        -0.858736        -1.208831
 H         1.763495        -1.931354         1.156690
 H         2.534218        -2.104042        -0.493395
 H         4.046634        -1.202895         1.752137
 H         4.197933         1.801327        -0.535684
 H         1.953063         1.726378        -1.347286
 H         2.644114         0.207432        -2.152122
 H         3.282860         1.359206         1.997771
