19
Iteration:   335
 C        -0.112057        -0.150911        -0.448173
 C         1.428527        -0.122921        -0.044602
 C         2.391797        -1.385227         0.155781
 C         3.565397        -0.688882         0.917540
 O         4.577837        -0.087131         0.016285
 C         3.603169         0.962682        -0.282380
 C         2.393883         0.544993        -1.185790
 C         3.065410         0.734250         1.155336
 O         1.541294         0.772018         1.044656
 H        -0.871010        -0.590289         0.220439
 H        -0.522041         0.853520        -0.618040
 H        -0.307641        -0.728544        -1.373357
 H         2.106303        -2.193368         0.898966
 H         2.704088        -1.840704        -0.764479
 H         4.129096        -1.298390         1.773427
 H         4.056842         2.004998        -0.523297
 H         1.964164         1.571805        -1.491308
 H         2.812605        -0.143146        -2.095350
 H         3.307197         1.453585         1.955155
