19
Iteration:  4383charge 0 multiplicity 1
 C        -0.005334        -0.122130        -0.343038
 C         1.463244        -0.077848        -0.165704
 C         2.328026        -1.361194         0.157725
 C         3.478873        -0.681409         0.947593
 O         4.527462        -0.260519         0.053693
 C         3.763170         0.967381        -0.247043
 C         2.458366         0.646025        -1.266003
 C         2.944842         0.758305         1.205421
 O         1.520506         0.747736         0.964739
 H        -0.595523        -1.010002        -0.031537
 H        -0.408389         0.920236        -0.052526
 H        -0.249933        -0.099951        -1.427764
 H         1.781070        -1.890746         0.973374
 H         2.640234        -2.114508        -0.599819
 H         3.979819        -1.168311         1.838812
 H         4.185093         1.944297        -0.553260
 H         2.033847         1.577917        -1.705856
 H         2.649692        -0.021584        -2.068213
 H         3.360506         1.287810         2.030605
