19
Iteration:  4570charge 0 multiplicity 1
 C         0.107718        -0.214941        -0.704032
 C         1.447766        -0.023869        -0.057584
 C         2.203404        -1.385529         0.399762
 C         3.500724        -0.815798         0.973524
 O         4.478603        -0.262525        -0.126295
 C         3.609625         0.972133        -0.289967
 C         2.352914         0.796683        -1.147574
 C         3.056423         0.767008         1.173010
 O         1.626962         0.789362         1.123201
 H        -0.441004        -0.964847        -0.058787
 H        -0.307365         0.721418        -1.057201
 H         0.362385        -0.785897        -1.627186
 H         1.681833        -1.898671         1.216909
 H         2.576493        -2.167715        -0.262954
 H         4.117153        -1.279271         1.690493
 H         4.199786         1.900039        -0.350006
 H         1.956608         1.941581        -1.357593
 H         2.646551         0.322230        -2.106347
 H         3.488282         1.405887         1.964788
