19
Iteration:  2711charge 0 multiplicity 1
 C         0.130941        -0.351899        -0.588590
 C         1.525887        -0.070602        -0.152229
 C         2.314985        -1.311284         0.379986
 C         3.540448        -0.670309         1.012307
 O         4.269595        -0.366140        -0.199293
 C         3.684816         1.033444        -0.283889
 C         2.451433         0.798052        -1.104628
 C         3.002501         0.843750         1.195500
 O         1.583340         0.761283         1.099895
 H        -0.384851        -0.456054         0.366898
 H        -0.275800         0.512394        -1.110033
 H        -0.125435        -1.163655        -1.306984
 H         1.632354        -1.933295         1.074413
 H         2.463601        -1.897720        -0.497044
 H         4.106986        -1.188792         1.831346
 H         4.365552         1.745742        -0.687878
 H         1.979742         1.755949        -1.356708
 H         2.772636         0.267737        -2.073633
 H         3.318036         1.552025         2.013951
