19
Iteration:  1070charge 0 multiplicity 1
 C         0.053259        -0.258006        -0.379051
 C         1.515039        -0.161942        -0.200313
 C         2.316432        -1.367647         0.299200
 C         3.560209        -0.616573         0.936877
 O         4.532606        -0.158346        -0.098298
 C         3.587363         1.042320        -0.225768
 C         2.429922         0.612403        -1.154271
 C         2.982671         0.755378         1.164922
 O         1.528355         0.769168         0.984453
 H        -0.476268        -0.798031         0.414666
 H        -0.206739         0.808842        -0.408430
 H        -0.280989        -0.728379        -1.305081
 H         1.752355        -1.957983         1.005225
 H         2.556911        -2.000244        -0.679299
 H         3.926211        -1.323917         1.715276
 H         4.100596         1.930889        -0.447472
 H         1.761769         1.451170        -1.505789
 H         2.675661         0.041378        -2.068389
 H         3.197323         1.507444         1.963872
