19
Iteration:  4140charge 0 multiplicity 1
 C        -0.039440        -0.252740        -0.668568
 C         1.392517        -0.053776        -0.112425
 C         2.277586        -1.335135         0.304193
 C         3.527886        -0.719531         1.005034
 O         4.476909        -0.259016        -0.079329
 C         3.729121         0.977688        -0.231264
 C         2.382040         0.748267        -1.116768
 C         3.099036         0.807840         1.146265
 O         1.666466         0.745307         1.101241
 H        -0.763508        -0.840194        -0.035069
 H        -0.576940         0.650759        -0.952207
 H         0.149652        -0.892046        -1.631592
 H         1.565951        -1.827859         1.006496
 H         2.394984        -1.991124        -0.556880
 H         4.010205        -1.168012         1.867875
 H         4.226006         1.847958        -0.569650
 H         1.756760         1.573250        -1.251289
 H         2.545337         0.192509        -2.031567
 H         3.297570         1.376451         2.055422
