19
Iteration:   277
 C         0.086817        -0.394766        -0.603297
 C         1.549350        -0.069588        -0.163680
 C         2.304461        -1.355075         0.390335
 C         3.545721        -0.706344         0.937927
 O         4.322174        -0.303703        -0.234859
 C         3.688591         1.041016        -0.229593
 C         2.386734         0.823399        -1.087002
 C         3.030189         0.809610         1.257229
 O         1.582183         0.830741         1.065350
 H        -0.437080        -0.888945         0.240167
 H        -0.550555         0.502718        -0.847976
 H        -0.035009        -1.134350        -1.442804
 H         1.762482        -1.785967         1.268387
 H         2.673035        -2.244297        -0.304358
 H         4.235805        -1.244554         1.692546
 H         4.276738         1.871369        -0.444242
 H         1.779353         1.722689        -1.291171
 H         2.656155         0.283487        -2.045187
 H         3.380469         1.483060         2.023956
