19
Iteration:   887charge 0 multiplicity 1
 C         0.007095        -0.216904        -0.389353
 C         1.516474        -0.135429        -0.201273
 C         2.349442        -1.388846         0.287758
 C         3.544749        -0.679512         0.918150
 O         4.515065        -0.096737        -0.030917
 C         3.545685         0.993045        -0.226006
 C         2.358705         0.642559        -1.161762
 C         2.992266         0.762980         1.172581
 O         1.643873         0.737330         0.938370
 H        -0.394302        -0.548722         0.618013
 H        -0.377077         0.789810        -0.671040
 H        -0.390493        -0.869706        -1.205188
 H         1.667956        -1.960343         0.943078
 H         2.670923        -2.135561        -0.558374
 H         4.021004        -1.231477         1.703371
 H         4.181854         1.892365        -0.766700
 H         1.710909         1.468302        -1.388310
 H         2.794087        -0.020763        -1.934897
 H         3.121548         1.408813         2.101073
