19
Iteration:  1480
 C        -0.062567        -0.189649        -0.308718
 C         1.430129        -0.177486        -0.207338
 C         2.393185        -1.322321         0.223313
 C         3.592590        -0.618272         1.020780
 O         4.548803        -0.127913         0.006419
 C         3.611068         0.994175        -0.262509
 C         2.411013         0.665018        -1.211028
 C         2.944341         0.774019         1.123411
 O         1.569164         0.628423         0.941785
 H        -0.510209        -0.484209         0.638530
 H        -0.526333         0.807911        -0.469173
 H        -0.507823        -0.774611        -1.123669
 H         1.970958        -2.131955         0.920769
 H         2.884653        -1.771100        -0.529150
 H         3.983144        -1.187596         1.785594
 H         4.301467         1.860619        -0.651526
 H         2.062990         1.494388        -1.953835
 H         2.639467        -0.074827        -2.027703
 H         3.294760         1.518965         1.868686
