19
Iteration:  2165
 C         0.198922        -0.423650        -0.671507
 C         1.545180        -0.053101        -0.051347
 C         2.208192        -1.280335         0.503891
 C         3.522075        -0.691098         0.989209
 O         4.386644        -0.292578        -0.255996
 C         3.613057         1.009216        -0.284185
 C         2.312165         0.805111        -1.086878
 C         3.100721         0.822634         1.117306
 O         1.574396         0.805936         1.096801
 H        -0.347549        -1.095666         0.028742
 H        -0.294437         0.461609        -0.998202
 H         0.483464        -1.050505        -1.487182
 H         1.536015        -1.695680         1.244806
 H         2.410929        -2.065560        -0.246341
 H         4.104984        -1.342323         1.691234
 H         4.277687         1.820741        -0.487019
 H         1.717032         1.664935        -1.243340
 H         2.531013         0.323426        -2.072695
 H         3.513442         1.278470         2.081964
