19
Iteration:  1567
 C         0.223484        -0.455466        -0.654820
 C         1.557222        -0.104437        -0.096247
 C         2.221574        -1.357255         0.503848
 C         3.553304        -0.625135         0.990280
 O         4.294530        -0.309293        -0.263894
 C         3.580387         1.056512        -0.227610
 C         2.293070         0.860582        -1.108312
 C         3.084864         0.828591         1.187024
 O         1.643758         0.775547         1.045140
 H        -0.333015        -1.068660         0.030047
 H        -0.209592         0.477665        -1.036794
 H         0.489042        -1.042639        -1.538161
 H         1.541135        -1.964579         1.326195
 H         2.494342        -2.092518        -0.148136
 H         4.175192        -1.131172         1.714564
 H         4.313045         1.948489        -0.668492
 H         1.616934         1.872641        -0.980066
 H         2.423224         0.405041        -2.155618
 H         3.621429         1.468706         1.988290
