19
Iteration:  2114charge 0 multiplicity 1
 C         0.064009        -0.344934        -0.539833
 C         1.536568        -0.069296        -0.083133
 C         2.315640        -1.346782         0.379064
 C         3.573410        -0.644809         0.947857
 O         4.421364        -0.258546        -0.188203
 C         3.601210         0.958230        -0.262992
 C         2.382277         0.779605        -1.116037
 C         2.971522         0.800504         1.161547
 O         1.587686         0.767448         1.017326
 H        -0.532622        -0.794920         0.292744
 H        -0.260257         0.686937        -0.743826
 H         0.276510        -1.053674        -1.348723
 H         1.684538        -1.793657         1.265291
 H         2.566913        -2.056108        -0.349673
 H         4.079462        -1.109956         1.814122
 H         4.281141         1.786556        -0.464039
 H         1.876499         1.768170        -1.310567
 H         2.574120         0.131440        -2.053876
 H         3.287611         1.475787         1.953648
