19
Iteration:  2412
 C        -0.012857        -0.379226        -0.593749
 C         1.474248         0.004742        -0.107911
 C         2.236910        -1.311352         0.438576
 C         3.501219        -0.680396         0.953330
 O         4.465664        -0.228211        -0.191367
 C         3.662593         0.972550        -0.280170
 C         2.467282         0.665859        -1.127461
 C         3.034521         0.774694         1.156814
 O         1.601413         0.828000         1.126385
 H        -0.560462        -0.817279         0.276429
 H        -0.527023         0.582940        -0.901041
 H         0.186136        -0.953725        -1.505763
 H         1.807915        -1.991943         1.178190
 H         2.531071        -1.998072        -0.452824
 H         4.074780        -1.211467         1.676812
 H         4.260354         1.890469        -0.574932
 H         1.910005         1.558866        -1.663902
 H         2.749033         0.023484        -1.953025
 H         3.442890         1.535188         1.854814
