19
Iteration:  1599charge 0 multiplicity 1
 C         0.014515        -0.346424        -0.476094
 C         1.467033        -0.080978        -0.137427
 C         2.302093        -1.293731         0.306400
 C         3.621270        -0.600412         0.942272
 O         4.477867        -0.220753        -0.126873
 C         3.648730         1.019027        -0.221866
 C         2.384753         0.663801        -1.142206
 C         3.017711         0.804920         1.177058
 O         1.534020         0.724171         1.023418
 H        -0.518714        -0.695247         0.376146
 H        -0.468097         0.592760        -0.780798
 H        -0.038164        -0.984884        -1.355926
 H         1.877219        -1.921079         1.184498
 H         2.440904        -1.971033        -0.451835
 H         4.238180        -1.262307         1.531138
 H         4.309506         1.926106        -0.577037
 H         2.007143         1.607572        -1.583418
 H         2.596675        -0.001577        -1.991554
 H         3.207581         1.435921         2.090485
