19
Iteration:  1465charge 0 multiplicity 1
 C        -0.056049        -0.268386        -0.411324
 C         1.513011        -0.079420        -0.157367
 C         2.379649        -1.384933         0.228648
 C         3.519424        -0.634556         0.925051
 O         4.498315        -0.118318         0.007103
 C         3.608527         0.977786        -0.307949
 C         2.398599         0.574960        -1.193658
 C         2.980609         0.834883         1.127657
 O         1.622411         0.728304         1.048768
 H        -0.501915        -0.601759         0.536112
 H        -0.461158         0.724313        -0.605491
 H        -0.199123        -0.969736        -1.238162
 H         1.744339        -1.926766         0.922898
 H         2.663397        -2.093407        -0.652863
 H         4.034116        -1.223866         1.797456
 H         4.014227         1.924455        -0.587790
 H         1.879028         1.533571        -1.366660
 H         2.784058         0.070417        -2.102835
 H         3.306194         1.335605         2.035054
