19
Iteration:  1099
 C         0.064030        -0.441039        -0.589777
 C         1.468895        -0.002327        -0.091462
 C         2.294305        -1.310361         0.413559
 C         3.554839        -0.627693         0.955050
 O         4.396414        -0.234336        -0.185021
 C         3.607992         1.024889        -0.267868
 C         2.364809         0.766538        -1.143919
 C         3.096547         0.755183         1.202492
 O         1.636680         0.767145         1.085353
 H        -0.528957        -1.204765        -0.144862
 H        -0.512224         0.397799        -1.026096
 H         0.412966        -0.871358        -1.549722
 H         1.668187        -1.807304         1.266953
 H         2.402008        -2.118544        -0.253516
 H         4.021952        -1.402874         1.690070
 H         4.215991         1.927186        -0.606322
 H         1.783561         1.689277        -1.313083
 H         2.532789         0.133060        -2.004268
 H         3.375196         1.529271         1.965693
