19
Iteration:   786
 C         0.002075        -0.262033        -0.480336
 C         1.463935        -0.163145        -0.156697
 C         2.350754        -1.348077         0.339691
 C         3.564921        -0.640374         0.971401
 O         4.469102        -0.167978        -0.046380
 C         3.563633         0.979331        -0.298737
 C         2.396120         0.713860        -1.216764
 C         3.014671         0.794368         1.134593
 O         1.632274         0.719666         1.072149
 H        -0.521686        -0.815899         0.287581
 H        -0.409327         0.783675        -0.468467
 H        -0.196153        -0.800667        -1.424146
 H         1.834252        -2.070202         0.960552
 H         2.764866        -1.949361        -0.518207
 H         4.041717        -1.188749         1.730598
 H         4.022768         1.975695        -0.641216
 H         1.987887         1.624166        -1.609735
 H         2.584074         0.052993        -2.000912
 H         3.314919         1.447909         1.921260
