19
Iteration:  3781charge 0 multiplicity 1
 C        -0.021074        -0.214814        -0.600606
 C         1.486181        -0.101337        -0.234543
 C         2.296459        -1.351487         0.321238
 C         3.492606        -0.671479         1.051422
 O         4.480114        -0.230906        -0.046152
 C         3.650982         0.898193        -0.288115
 C         2.372925         0.710063        -1.112676
 C         3.044699         0.781820         1.158735
 O         1.650680         0.801408         1.054544
 H        -0.548090        -0.804395         0.216562
 H        -0.413306         0.814042        -0.571697
 H        -0.069707        -0.684825        -1.644455
 H         1.596206        -1.882099         0.940591
 H         2.760027        -2.164288        -0.262798
 H         3.896938        -1.226197         1.937497
 H         4.220155         1.758481        -0.580996
 H         2.008064         1.638231        -1.434214
 H         2.500504         0.161706        -2.121080
 H         3.402733         1.423992         2.006286
