19
Iteration:  2463charge 0 multiplicity 1
 C         0.068329        -0.358438        -0.638032
 C         1.542334        -0.073244        -0.133051
 C         2.268181        -1.347072         0.506196
 C         3.591440        -0.570928         0.993943
 O         4.307949        -0.382147        -0.194543
 C         3.663643         0.979283        -0.296758
 C         2.387932         0.873247        -1.092892
 C         3.064959         0.798556         1.119718
 O         1.590162         0.752372         1.049351
 H        -0.557365        -0.942917         0.027782
 H        -0.572392         0.553833        -0.838326
 H         0.408577        -0.990725        -1.525208
 H         1.629393        -1.639048         1.405564
 H         2.426932        -2.217111        -0.100122
 H         4.248945        -1.034426         1.796868
 H         4.451512         1.780852        -0.426327
 H         1.829476         1.786295        -1.220631
 H         2.577123         0.439977        -2.066289
 H         3.458451         1.492646         1.919973
