19
Iteration:  3250
 C         0.044278        -0.137735        -0.427819
 C         1.452586        -0.156871        -0.189068
 C         2.364067        -1.393029         0.266740
 C         3.473439        -0.705378         1.053621
 O         4.479811        -0.171651         0.057244
 C         3.631986         0.975994        -0.237745
 C         2.386819         0.657356        -1.227281
 C         3.002973         0.818068         1.091244
 O         1.634606         0.690572         0.944191
 H        -0.531957        -0.524975         0.468450
 H        -0.196398         0.891190        -0.485801
 H        -0.357674        -0.591946        -1.374353
 H         1.671266        -1.952698         0.883203
 H         2.709516        -1.897900        -0.636409
 H         4.075429        -1.200068         1.794981
 H         4.302591         1.772747        -0.666690
 H         1.727465         1.585214        -1.534293
 H         2.657646         0.119767        -2.110739
 H         3.157957         1.563351         1.849768
