19
Iteration:  4793charge 0 multiplicity 1
 C        -0.036275        -0.057062        -0.452302
 C         1.541292        -0.179238        -0.246678
 C         2.254263        -1.400620         0.345608
 C         3.506339        -0.642548         0.934256
 O         4.490105        -0.230530         0.049703
 C         3.653476         0.990587        -0.232523
 C         2.517051         0.638335        -1.168964
 C         2.964893         0.692610         1.157156
 O         1.596395         0.776415         0.889435
 H        -0.211051         0.732966        -1.130263
 H        -0.433875        -1.062880        -0.801595
 H        -0.365653         0.290333         0.514642
 H         1.591763        -1.721413         1.188228
 H         2.637770        -2.139073        -0.372335
 H         3.919079        -1.206218         1.833226
 H         4.144440         1.875355        -0.617522
 H         1.738955         1.468026        -1.391891
 H         2.870860        -0.019401        -2.057882
 H         3.231758         1.313678         1.930624
