19
Iteration:  3609charge 0 multiplicity 1
 C         0.154723        -0.377603        -0.730850
 C         1.528833        -0.107409        -0.091233
 C         2.285638        -1.348608         0.419559
 C         3.477692        -0.716533         1.011681
 O         4.297656        -0.335007        -0.167533
 C         3.639869         0.948848        -0.267493
 C         2.394343         0.807453        -1.026745
 C         3.048110         0.858534         1.131449
 O         1.629304         0.895659         1.093721
 H        -0.435487        -0.999063        -0.096939
 H        -0.249538         0.613460        -0.725491
 H         0.259940        -0.823046        -1.754206
 H         1.665395        -1.995887         1.121890
 H         2.488162        -2.031390        -0.428435
 H         3.972004        -1.196557         1.841536
 H         4.377038         1.707206        -0.570953
 H         1.865704         1.867582        -1.241015
 H         2.518592         0.442265        -1.999120
 H         3.667397         1.442892         1.844965
