19
Iteration:  4184charge 0 multiplicity 1
 C         0.148670        -0.352786        -0.626045
 C         1.573845        -0.039356        -0.136369
 C         2.200603        -1.314625         0.482829
 C         3.485409        -0.701588         0.958474
 O         4.224765        -0.347540        -0.254376
 C         3.679712         1.045869        -0.184323
 C         2.482312         0.854248        -1.130124
 C         3.076358         0.767748         1.245170
 O         1.618630         0.783617         1.020015
 H        -0.211514        -1.324171        -0.192212
 H        -0.702668         0.336610        -0.376356
 H         0.207813        -0.524121        -1.795275
 H         1.564235        -1.848988         1.255284
 H         2.445150        -1.983337        -0.367531
 H         4.123862        -1.319296         1.601785
 H         4.492384         1.774124        -0.187439
 H         1.903588         1.706460        -1.378227
 H         2.890598         0.468864        -2.072059
 H         3.339682         1.397154         2.107507
