19
Iteration:  4975
 C         0.130596        -0.260429        -0.588506
 C         1.526153        -0.075707        -0.115303
 C         2.238844        -1.372756         0.499561
 C         3.516360        -0.633477         1.019338
 O         4.302558        -0.409431        -0.089148
 C         3.733772         0.965346        -0.227460
 C         2.470440         0.702029        -1.207336
 C         3.079538         0.882838         1.172967
 O         1.555708         0.867138         0.896444
 H        -0.469487        -0.732570         0.208395
 H        -0.422252         0.743740        -0.723417
 H         0.090108        -1.029408        -1.381193
 H         1.496374        -1.807313         1.162204
 H         2.324139        -2.081928        -0.350612
 H         3.987057        -1.096101         1.846452
 H         4.483808         1.803831        -0.456863
 H         1.877215         1.482200        -1.578598
 H         2.709747         0.075803        -2.086370
 H         3.158951         1.597359         1.965707
