19
Iteration:  1332
 C        -0.011159        -0.193113        -0.328089
 C         1.503333        -0.179735        -0.234108
 C         2.399977        -1.370023         0.234407
 C         3.580065        -0.722827         0.881664
 O         4.535511        -0.074516         0.006145
 C         3.609285         0.991813        -0.296216
 C         2.436998         0.553101        -1.206111
 C         2.909941         0.799676         1.201864
 O         1.530647         0.774520         1.002873
 H        -0.387496        -0.599490         0.620922
 H        -0.283146         0.841750        -0.510449
 H        -0.617367        -0.755338        -0.983846
 H         1.916901        -1.958638         0.942739
 H         2.559713        -2.024923        -0.717258
 H         3.908527        -1.305304         1.840535
 H         4.026639         1.884414        -0.586471
 H         1.994078         1.482198        -1.590347
 H         2.792501         0.007098        -2.104729
 H         3.210058         1.457610         2.065642
