19
Iteration:   528charge 0 multiplicity 1
 C         0.169001        -0.429012        -0.683461
 C         1.478103        -0.123396        -0.084011
 C         2.270645        -1.348187         0.474535
 C         3.579506        -0.571959         0.935153
 O         4.320976        -0.297293        -0.213475
 C         3.616580         0.934608        -0.275455
 C         2.312726         0.846462        -1.087454
 C         3.121580         0.833788         1.188585
 O         1.622506         0.826728         1.095768
 H        -0.526267        -0.896102         0.056132
 H        -0.364304         0.502303        -1.065915
 H         0.242409        -1.054345        -1.604217
 H         1.641525        -1.802863         1.262565
 H         2.503671        -2.192542        -0.286365
 H         4.104679        -1.233612         1.709320
 H         4.241243         1.746765        -0.446748
 H         1.821527         1.779605        -1.236749
 H         2.545885         0.424799        -2.068383
 H         3.430969         1.324040         2.112874
