19
Iteration:  1784charge 0 multiplicity 1
 C        -0.104565        -0.197297        -0.377739
 C         1.414555        -0.092874        -0.201890
 C         2.314786        -1.368658         0.186007
 C         3.564164        -0.609414         0.916888
 O         4.636405        -0.090841         0.055356
 C         3.575728         0.993130        -0.266220
 C         2.461711         0.527738        -1.230987
 C         2.969108         0.773787         1.095278
 O         1.602478         0.734689         1.063404
 H        -0.299167        -0.638131         0.604474
 H        -0.801439         0.642460        -0.582252
 H        -0.469354        -0.929290        -1.123968
 H         1.755215        -2.108906         0.871401
 H         2.723781        -1.904266        -0.588699
 H         3.950007        -1.159735         1.773230
 H         4.088213         1.911165        -0.630541
 H         2.043838         1.358977        -1.674778
 H         2.858880        -0.198980        -1.904177
 H         3.304619         1.189584         2.063871
