19
Iteration:    15charge 0 multiplicity 1
 C         0.059774        -0.257238        -0.295028
 C         1.586479        -0.171439        -0.186210
 C         2.264416        -1.405594         0.280947
 C         3.527207        -0.749406         0.943469
 O         4.503224        -0.150513        -0.006132
 C         3.556752         1.016401        -0.244771
 C         2.454547         0.683452        -1.280975
 C         2.957613         0.789750         1.134067
 O         1.550222         0.805740         0.934540
 H        -0.340402        -0.714428         0.628535
 H        -0.188398         0.769853        -0.377223
 H        -0.313059        -0.706463        -1.197510
 H         1.693802        -1.942818         0.948860
 H         2.440867        -2.140631        -0.551450
 H         4.069873        -1.318914         1.813535
 H         4.192443         2.083783        -0.530153
 H         1.836854         1.618527        -1.478473
 H         2.915088         0.309500        -2.153095
 H         3.273145         1.459581         1.984453
