19
Iteration:  1688
 C         0.237732        -0.464178        -0.623950
 C         1.528777        -0.072359        -0.106672
 C         2.245552        -1.293393         0.443580
 C         3.514301        -0.741222         0.979246
 O         4.335027        -0.257148        -0.217343
 C         3.594786         1.056698        -0.299065
 C         2.288911         0.766885        -1.091301
 C         3.058131         0.824890         1.185140
 O         1.676817         0.817239         1.079657
 H        -0.358208        -1.075987         0.049131
 H        -0.286267         0.410058        -0.965999
 H         0.474372        -0.919774        -1.567255
 H         1.617040        -1.693318         1.328069
 H         2.245241        -2.064358        -0.233512
 H         3.980476        -1.320593         1.740626
 H         4.096556         2.078270        -0.644287
 H         1.794408         1.748339        -1.185301
 H         2.564053         0.347585        -2.074021
 H         3.381228         1.375532         2.074753
