19
Iteration:  2154charge 0 multiplicity 1
 C         0.255597        -0.529979        -0.691459
 C         1.461588        -0.046855        -0.043095
 C         2.185782        -1.335352         0.468644
 C         3.437116        -0.703554         0.955923
 O         4.331258        -0.263161        -0.233925
 C         3.659640         1.049033        -0.327753
 C         2.330221         0.840564        -1.096583
 C         3.100415         0.778412         1.168084
 O         1.696802         0.861364         1.171033
 H        -0.566225        -1.063084        -0.164274
 H        -0.361358         0.229658        -1.119610
 H         0.563175        -1.036556        -1.564425
 H         1.696872        -1.598799         1.399269
 H         2.197738        -2.190154        -0.262947
 H         4.033653        -1.307070         1.699585
 H         4.285322         1.889051        -0.563571
 H         1.850305         1.753969        -1.295869
 H         2.545133         0.258707        -2.054157
 H         3.457679         1.643600         1.895122
