19
Iteration:  4826charge 0 multiplicity 1
 C         0.057565        -0.220275        -0.576671
 C         1.497008        -0.032035        -0.163209
 C         2.247928        -1.244901         0.325757
 C         3.541609        -0.637397         1.002524
 O         4.443034        -0.328346        -0.039825
 C         3.646252         0.911196        -0.285936
 C         2.471280         0.609212        -1.130588
 C         2.974991         0.787972         1.181968
 O         1.599698         0.830434         1.040120
 H        -0.452637         0.706676        -0.737236
 H        -0.092524        -0.773528        -1.541722
 H        -0.565289        -0.791509         0.097024
 H         1.609431        -1.846902         1.022963
 H         2.622795        -1.975176        -0.406695
 H         3.909248        -1.303261         1.836859
 H         4.244649         1.770516        -0.579241
 H         1.928622         1.502437        -1.644216
 H         2.779291        -0.033207        -2.025458
 H         3.411045         1.401098         1.896141
