19
Iteration:  4620
 C         0.103816        -0.276456        -0.562543
 C         1.545435        -0.011871        -0.158260
 C         2.254123        -1.371334         0.363791
 C         3.527807        -0.779871         0.977216
 O         4.344578        -0.314458        -0.083207
 C         3.652374         1.027521        -0.220673
 C         2.458312         0.833224        -1.175771
 C         2.994292         0.697220         1.167827
 O         1.589890         0.800915         0.972436
 H        -0.186360        -1.250269        -0.179264
 H        -0.427109         0.453484         0.187822
 H        -0.216306         0.136166        -1.537064
 H         1.486389        -1.906172         0.982048
 H         2.552537        -2.134799        -0.395431
 H         4.117016        -0.979129         1.968013
 H         4.375736         1.864427        -0.153188
 H         2.065040         1.731337        -1.481001
 H         2.758428         0.329662        -2.089445
 H         3.401825         1.319980         1.929181
