19
Iteration:   102charge 0 multiplicity 1
 C         0.125581        -0.388653        -0.717528
 C         1.547992        -0.066217        -0.163722
 C         2.295269        -1.353544         0.640683
 C         3.600875        -0.644187         0.911867
 O         4.244068        -0.269390        -0.308974
 C         3.649437         0.986626        -0.199072
 C         2.434111         0.796743        -1.136207
 C         3.018790         0.789703         1.148263
 O         1.568986         0.769158         1.155275
 H        -0.587119        -0.783041         0.013387
 H        -0.385982         0.509602        -0.984620
 H         0.104115        -1.098131        -1.527129
 H         1.765960        -1.551933         1.513284
 H         2.559048        -2.160136        -0.122475
 H         4.256489        -1.146780         1.748384
 H         4.499236         1.733318        -0.417604
 H         1.904440         1.831205        -1.245066
 H         2.718230         0.542373        -2.151168
 H         3.400698         1.452623         1.981499
