19
Iteration:  2205
 C         0.021629        -0.180690        -0.391285
 C         1.495755        -0.145995        -0.193587
 C         2.272993        -1.405055         0.328683
 C         3.519343        -0.663462         0.941162
 O         4.525635        -0.137974         0.003239
 C         3.598130         1.035608        -0.261890
 C         2.428652         0.597066        -1.223613
 C         3.012920         0.781766         1.103466
 O         1.586033         0.697445         0.988506
 H        -0.514947        -0.525113         0.496931
 H        -0.419641         0.858388        -0.397148
 H        -0.318403        -0.779348        -1.286814
 H         1.686619        -2.117687         0.910691
 H         2.786517        -1.836612        -0.639235
 H         4.016687        -0.908787         1.857120
 H         4.162325         1.994771        -0.584021
 H         1.806195         1.484407        -1.610889
 H         2.776055        -0.036529        -1.971283
 H         3.358197         1.454234         1.885407
