19
Iteration:  1190
 C        -0.088721        -0.227315        -0.367391
 C         1.404109        -0.161843        -0.200487
 C         2.307630        -1.357751         0.197880
 C         3.530496        -0.655771         0.939132
 O         4.604115        -0.068910         0.029917
 C         3.630167         1.074665        -0.274957
 C         2.413899         0.531035        -1.127288
 C         3.021229         0.751511         1.106308
 O         1.581634         0.734709         1.007742
 H        -0.556522        -0.730109         0.460979
 H        -0.337431         0.781414        -0.544958
 H        -0.286634        -0.895073        -1.150808
 H         1.845826        -2.029061         0.860681
 H         2.725134        -1.871159        -0.802406
 H         4.111618        -1.174680         1.784165
 H         4.024766         2.002892        -0.447513
 H         2.010697         1.366331        -1.750800
 H         2.721364        -0.166007        -1.951302
 H         3.461266         1.386448         1.828281
