19
Iteration:  4252
 C        -0.113697        -0.091596        -0.539292
 C         1.464881        -0.082857        -0.181864
 C         2.334952        -1.401390         0.188006
 C         3.502051        -0.722611         0.888671
 O         4.497861        -0.209097         0.010902
 C         3.648327         1.023106        -0.177269
 C         2.453233         0.612896        -1.196973
 C         3.031341         0.782100         1.188792
 O         1.608992         0.755319         1.101621
 H        -0.426143        -0.187206         0.505387
 H        -0.642835         0.886991        -0.930379
 H        -0.349244        -1.022861        -1.116319
 H         1.862259        -2.146462         0.927198
 H         2.905309        -2.033486        -0.579413
 H         3.980066        -1.461433         1.605722
 H         4.168506         2.040124        -0.467755
 H         1.904481         1.345804        -1.757472
 H         2.777538        -0.092742        -1.885266
 H         3.573729         1.272792         2.025163
