19
Iteration:  1747charge 0 multiplicity 1
 C         0.112300        -0.240761        -0.493247
 C         1.521876        -0.126747        -0.194720
 C         2.320289        -1.421175         0.383503
 C         3.553668        -0.663919         0.945688
 O         4.440950        -0.184931        -0.082509
 C         3.566200         1.003762        -0.277462
 C         2.375301         0.689086        -1.165163
 C         2.967978         0.785590         1.128816
 O         1.566744         0.773364         1.038911
 H        -0.324140        -0.711881         0.409972
 H        -0.330060         0.758460        -0.559904
 H        -0.002083        -1.063733        -1.203218
 H         1.885827        -2.023075         1.105685
 H         2.764520        -2.113709        -0.480687
 H         4.102174        -1.012289         1.864615
 H         4.080953         1.887351        -0.512052
 H         1.903879         1.698734        -1.516848
 H         2.690047         0.312118        -2.174161
 H         3.406343         1.317408         1.996695
