19
Iteration:  2201charge 0 multiplicity 1
 C        -0.000849        -0.198931        -0.418150
 C         1.499167        -0.170271        -0.163737
 C         2.315840        -1.390116         0.347662
 C         3.524181        -0.696986         0.961290
 O         4.499452        -0.160678        -0.038557
 C         3.626253         1.036268        -0.259925
 C         2.428642         0.660511        -1.219969
 C         3.020259         0.829696         1.113707
 O         1.572293         0.702035         0.986576
 H        -0.613839        -0.542751         0.423281
 H        -0.442949         0.814265        -0.502659
 H        -0.341408        -0.721290        -1.332322
 H         1.649107        -2.134266         0.931288
 H         2.825326        -1.914376        -0.417002
 H         4.035789        -1.003773         1.894811
 H         4.135634         1.939598        -0.526049
 H         1.738801         1.455238        -1.646189
 H         2.796216        -0.030925        -2.087407
 H         3.427180         1.406598         1.926661
