19
Iteration:  4034
 C         0.144389        -0.421332        -0.720396
 C         1.524061        -0.080802        -0.144831
 C         2.218416        -1.325810         0.412044
 C         3.470410        -0.671095         1.006404
 O         4.252553        -0.357554        -0.226062
 C         3.676378         1.016647        -0.200153
 C         2.435624         0.809649        -1.069980
 C         3.102573         0.787032         1.204928
 O         1.663703         0.869411         1.118632
 H        -0.447103        -1.118782        -0.250668
 H        -0.384072         0.531455        -0.897294
 H         0.366501        -0.838525        -1.712101
 H         1.466046        -1.794450         1.084078
 H         2.594558        -2.056255        -0.305820
 H         4.060672        -1.142166         1.831252
 H         4.426426         1.830176        -0.434428
 H         1.832724         1.821725        -1.179913
 H         2.435335         0.517293        -2.104374
 H         3.439884         1.460402         1.998848
