19
Iteration:   952charge 0 multiplicity 1
 C         0.146768        -0.390157        -0.612439
 C         1.513746        -0.085927        -0.098161
 C         2.311550        -1.361535         0.422086
 C         3.567939        -0.726664         0.954437
 O         4.418905        -0.240115        -0.182113
 C         3.546573         0.968296        -0.269764
 C         2.284562         0.801641        -1.121966
 C         3.011135         0.790841         1.191893
 O         1.631510         0.856115         1.077564
 H        -0.523797        -1.113973        -0.020763
 H        -0.422227         0.590824        -0.685981
 H         0.306419        -0.991613        -1.549142
 H         1.808871        -1.940618         1.205701
 H         2.654940        -2.099156        -0.433224
 H         4.065193        -1.088437         1.793042
 H         4.269861         1.875566        -0.590010
 H         1.795258         1.769397        -1.257978
 H         2.485410         0.433964        -2.143609
 H         3.480501         1.525469         1.927138
