19
Iteration:  3512charge 0 multiplicity 1
 C        -0.106969        -0.181525        -0.477207
 C         1.470479        -0.109416        -0.266113
 C         2.317736        -1.364758         0.261494
 C         3.521357        -0.616713         1.016620
 O         4.474850        -0.215855         0.036321
 C         3.636859         0.957175        -0.281155
 C         2.444887         0.613573        -1.216666
 C         3.034098         0.821718         1.193145
 O         1.638200         0.722460         1.026982
 H        -0.375002        -0.545425         0.493841
 H        -0.353307         0.916011        -0.528507
 H        -0.402320        -0.772330        -1.430967
 H         1.759259        -2.130763         0.892124
 H         2.818594        -1.763259        -0.626392
 H         3.992828        -1.069908         1.846682
 H         4.320246         1.714407        -0.761241
 H         2.034509         1.583627        -1.608182
 H         2.734781        -0.028356        -2.070519
 H         3.157173         1.321534         2.185754
