19
Iteration:  4803charge 0 multiplicity 1
 C         0.013753        -0.072108        -0.445155
 C         1.485851        -0.126552        -0.200232
 C         2.260902        -1.470896         0.366255
 C         3.472551        -0.713036         1.009279
 O         4.483693        -0.205466         0.002918
 C         3.719678         1.008523        -0.260214
 C         2.508802         0.633203        -1.211646
 C         2.925503         0.813701         1.105574
 O         1.604207         0.749834         0.921280
 H        -0.257265         0.772887        -1.014770
 H        -0.534438        -0.922043        -0.963931
 H        -0.558926        -0.032956         0.474803
 H         1.693281        -2.018795         1.162344
 H         2.486147        -2.284664        -0.350462
 H         3.929174        -1.189156         1.918767
 H         4.383488         1.877837        -0.374160
 H         2.027785         1.638801        -1.661027
 H         2.895247         0.129959        -2.207513
 H         3.204146         1.216901         2.022955
