19
Iteration:  2054
 C        -0.060072        -0.254368        -0.468419
 C         1.497750        -0.100966        -0.136266
 C         2.332175        -1.378697         0.283204
 C         3.554147        -0.698558         0.876831
 O         4.547468        -0.082563        -0.034202
 C         3.617934         0.975896        -0.297741
 C         2.443775         0.568048        -1.173763
 C         2.956638         0.781289         1.175763
 O         1.579860         0.829755         1.090491
 H        -0.540849        -0.739473         0.350065
 H        -0.579850         0.668264        -0.645160
 H        -0.427632        -0.785049        -1.328973
 H         1.829791        -1.984280         0.943196
 H         2.645862        -2.081600        -0.599861
 H         4.038040        -1.360132         1.588877
 H         4.289472         1.813105        -0.587345
 H         1.941139         1.405354        -1.656429
 H         2.588252        -0.139927        -1.923999
 H         3.391107         1.320212         2.012173
