19
Iteration:  3624
 C         0.010376        -0.281842        -0.662307
 C         1.452731        -0.020096        -0.137792
 C         2.258231        -1.364456         0.401483
 C         3.555471        -0.647954         1.003367
 O         4.432778        -0.302546        -0.087310
 C         3.654587         0.955471        -0.244323
 C         2.367293         0.735455        -1.162932
 C         3.067140         0.754403         1.183941
 O         1.662958         0.829346         1.044963
 H        -0.437440        -1.173259        -0.175200
 H        -0.829619         0.496065        -0.731254
 H         0.118756        -0.604080        -1.700107
 H         1.655901        -1.844675         1.178332
 H         2.681797        -1.968382        -0.397672
 H         4.100106        -1.162102         1.805817
 H         4.217685         1.901410        -0.481926
 H         1.881735         1.650958        -1.286371
 H         2.711618         0.114965        -1.993979
 H         3.296452         1.363878         2.048865
