19
Iteration:     4charge 0 multiplicity 1
 C         0.088010        -0.302723        -0.482998
 C         1.480737        -0.104115        -0.143936
 C         2.290788        -1.345283         0.336908
 C         3.533724        -0.689241         0.943039
 O         4.433548        -0.202149        -0.087060
 C         3.609321         0.984765        -0.264219
 C         2.408973         0.683542        -1.165697
 C         3.006759         0.798266         1.160692
 O         1.596449         0.772522         1.019911
 H        -0.497646        -0.720971         0.350301
 H        -0.332454         0.678744        -0.624843
 H        -0.002542        -0.926576        -1.353720
 H         1.749215        -1.799759         1.107487
 H         2.576763        -2.024095        -0.500300
 H         4.191437        -1.133709         1.763422
 H         4.226899         1.981415        -0.569135
 H         1.845573         1.610992        -1.479792
 H         2.746295         0.218994        -2.070703
 H         3.311566         1.458455         2.009444
