19
Iteration:  1115
 C         0.250669        -0.459761        -0.724642
 C         1.507132        -0.041831        -0.094531
 C         2.257114        -1.249419         0.474083
 C         3.574663        -0.679634         0.948026
 O         4.377092        -0.301822        -0.231417
 C         3.556170         0.970945        -0.289448
 C         2.269264         0.803179        -1.061274
 C         3.052110         0.818105         1.147164
 O         1.615384         0.809346         1.174581
 H        -0.294510        -1.026004         0.093716
 H        -0.353470         0.415758        -0.916915
 H         0.378960        -1.184426        -1.523046
 H         1.557397        -1.606742         1.181490
 H         2.516086        -1.986067        -0.447638
 H         4.154079        -1.071730         1.750303
 H         4.299810         1.720314        -0.485238
 H         1.725651         1.746703        -1.296540
 H         2.446754         0.378815        -2.085813
 H         3.398297         1.329468         2.012398
