19
Iteration:  4156
 C         0.106923        -0.392193        -0.739625
 C         1.506763        -0.014403        -0.102653
 C         2.183909        -1.278334         0.422555
 C         3.514827        -0.700362         0.917681
 O         4.434173        -0.312282        -0.125443
 C         3.609162         0.922961        -0.284834
 C         2.359216         0.818256        -1.066073
 C         3.069279         0.718115         1.198279
 O         1.634237         0.875136         1.132361
 H        -0.418942        -1.174769        -0.192018
 H        -0.600722         0.454528        -0.765448
 H         0.302772        -0.634596        -1.733473
 H         1.686307        -1.829903         1.230651
 H         2.480557        -1.995057        -0.368215
 H         4.076779        -1.417052         1.571107
 H         4.361360         1.770016        -0.427395
 H         2.078065         1.912517        -1.278762
 H         2.488785         0.507587        -2.127057
 H         3.563456         1.287719         2.005361
