19
Iteration:  1002charge 0 multiplicity 1
 C         0.118900        -0.396229        -0.600228
 C         1.543576        -0.080722        -0.126086
 C         2.275940        -1.340981         0.379296
 C         3.574036        -0.729475         0.923719
 O         4.355611        -0.199226        -0.177241
 C         3.584809         1.050448        -0.258620
 C         2.349176         0.765563        -1.154798
 C         3.043744         0.755226         1.213391
 O         1.623585         0.830814         1.116910
 H        -0.407609        -0.839079         0.194828
 H        -0.433219         0.467045        -0.990279
 H         0.133754        -1.214872        -1.317352
 H         1.583243        -1.811631         1.187212
 H         2.575728        -2.193433        -0.232633
 H         4.294043        -1.292629         1.692794
 H         4.154517         1.955596        -0.479347
 H         1.716604         1.688726        -1.390759
 H         2.660975         0.182152        -2.029734
 H         3.487063         1.446401         1.973993
