19
Iteration:  3484
 C         0.129138        -0.312021        -0.581545
 C         1.502819        -0.065631        -0.141744
 C         2.220235        -1.388187         0.441787
 C         3.542328        -0.740830         0.879912
 O         4.482219        -0.276468        -0.099553
 C         3.574822         0.971063        -0.234650
 C         2.437611         0.720369        -1.200798
 C         2.983805         0.817938         1.178575
 O         1.557393         0.883519         1.040104
 H        -0.228519        -1.032033         0.143379
 H        -0.281955         0.698755        -0.454451
 H         0.214684        -0.593117        -1.588954
 H         1.763875        -1.690716         1.362193
 H         2.265880        -2.101209        -0.381637
 H         4.071844        -1.225903         1.749551
 H         4.245752         1.816754        -0.359170
 H         1.922136         1.638228        -1.334928
 H         2.729454         0.131224        -2.171179
 H         3.287668         1.387551         2.048624
