19
Iteration:   955charge 0 multiplicity 1
 C         0.157928        -0.397246        -0.608213
 C         1.495690        -0.070053        -0.117513
 C         2.330088        -1.377896         0.440092
 C         3.571685        -0.737112         0.976572
 O         4.401320        -0.252482        -0.198734
 C         3.550392         0.991585        -0.293954
 C         2.271347         0.818285        -1.106067
 C         3.035994         0.818777         1.196354
 O         1.612169         0.846470         1.067107
 H        -0.453078        -1.138477        -0.031221
 H        -0.389406         0.509215        -0.817944
 H         0.382204        -0.928496        -1.543783
 H         1.767184        -1.988902         1.272760
 H         2.489929        -2.065290        -0.390019
 H         4.180803        -1.205428         1.831730
 H         4.306340         1.826997        -0.577720
 H         1.849134         1.832454        -1.169627
 H         2.556289         0.432282        -2.120979
 H         3.449571         1.442515         1.969340
