19
Iteration:  2155charge 0 multiplicity 1
 C         0.256855        -0.520690        -0.688909
 C         1.471619        -0.050405        -0.042307
 C         2.188379        -1.335068         0.467743
 C         3.438240        -0.700385         0.970501
 O         4.342108        -0.267514        -0.240274
 C         3.657501         1.053808        -0.326286
 C         2.321433         0.839648        -1.096440
 C         3.106965         0.780590         1.155265
 O         1.678933         0.855027         1.164279
 H        -0.573414        -1.050467        -0.145281
 H        -0.360626         0.261526        -1.080621
 H         0.589762        -1.035275        -1.553208
 H         1.659841        -1.599960         1.439480
 H         2.209584        -2.136910        -0.257215
 H         4.031703        -1.357339         1.683672
 H         4.285106         1.863213        -0.533191
 H         1.823674         1.773062        -1.280937
 H         2.567618         0.229775        -2.084937
 H         3.453756         1.619891         1.920166
