19
Iteration:  2946
 C        -0.095944        -0.219851        -0.374993
 C         1.439636        -0.032801        -0.168174
 C         2.225459        -1.253395         0.190332
 C         3.523646        -0.693336         0.946601
 O         4.583789        -0.182810         0.085458
 C         3.604664         0.981310        -0.264185
 C         2.536651         0.486134        -1.303324
 C         3.004473         0.741354         1.152091
 O         1.616272         0.831308         1.013583
 H        -0.433386        -1.016869         0.367883
 H        -0.551526         0.707095        -0.193618
 H        -0.171496        -0.454850        -1.407641
 H         1.660568        -1.983928         0.788073
 H         2.507838        -1.780580        -0.755888
 H         3.767583        -1.353491         1.756526
 H         4.066485         2.020075        -0.269305
 H         2.104565         1.253758        -2.019749
 H         2.870258        -0.395283        -1.884434
 H         3.436377         1.295694         2.060403
