19
Iteration:  3997charge 0 multiplicity 1
 C         0.093479        -0.252394        -0.623217
 C         1.513991        -0.081374        -0.186416
 C         2.217477        -1.306962         0.403810
 C         3.542766        -0.686275         0.986987
 O         4.441938        -0.247176        -0.119853
 C         3.628545         0.977102        -0.210280
 C         2.381903         0.714177        -1.166170
 C         3.048376         0.691335         1.191642
 O         1.622167         0.798886         1.020095
 H        -0.539345        -1.099366        -0.170267
 H        -0.494902         0.599280        -0.288984
 H         0.058728        -0.185689        -1.723463
 H         1.639068        -1.614126         1.346478
 H         2.267232        -2.223619        -0.234265
 H         4.093789        -1.283011         1.737287
 H         4.106722         1.932304        -0.174851
 H         1.901598         1.670982        -1.387898
 H         2.744452         0.160164        -2.147100
 H         3.398331         1.320593         2.043102
