19
Iteration:   566charge 0 multiplicity 1
 C         0.123207        -0.396424        -0.614552
 C         1.532924        -0.078004        -0.091741
 C         2.276204        -1.341946         0.467980
 C         3.583740        -0.649568         0.934448
 O         4.324702        -0.262082        -0.244094
 C         3.592914         1.007635        -0.240817
 C         2.392228         0.761416        -1.127808
 C         3.055046         0.789083         1.195724
 O         1.562053         0.797237         1.063179
 H        -0.577013        -0.722136         0.161325
 H        -0.193143         0.577972        -0.930225
 H         0.195954        -1.115532        -1.439285
 H         1.570943        -1.602236         1.387046
 H         2.501970        -2.191378        -0.134884
 H         4.385051        -0.987800         1.569307
 H         4.357048         1.857975        -0.515881
 H         1.904308         1.739162        -1.383988
 H         2.777490         0.235101        -2.011249
 H         3.522388         1.313234         2.074223
