19
Iteration:   746charge 0 multiplicity 1
 C        -0.122073        -0.299452        -0.342895
 C         1.465394        -0.082247        -0.186188
 C         2.316042        -1.338745         0.245056
 C         3.570754        -0.669385         0.904697
 O         4.557733        -0.118408        -0.023781
 C         3.614939         1.009385        -0.276783
 C         2.473748         0.618038        -1.196820
 C         2.934345         0.781105         1.175215
 O         1.616493         0.746413         1.003214
 H        -0.613605        -0.688358         0.553251
 H        -0.495781         0.669150        -0.562119
 H        -0.403529        -0.923515        -1.174555
 H         1.848325        -2.016826         0.923234
 H         2.628990        -2.039061        -0.636806
 H         4.005475        -1.270559         1.731419
 H         4.336608         1.781583        -0.459515
 H         2.014804         1.568068        -1.602117
 H         2.870705        -0.097154        -1.995535
 H         3.301799         1.522952         1.848429
