19
Iteration:  3091charge 0 multiplicity 1
 C        -0.067637        -0.111739        -0.380407
 C         1.506220        -0.119332        -0.198782
 C         2.354336        -1.369853         0.181200
 C         3.514678        -0.682084         1.005747
 O         4.502155        -0.213734         0.110656
 C         3.612245         0.971157        -0.268420
 C         2.431259         0.570718        -1.316241
 C         2.956722         0.871468         1.154649
 O         1.606455         0.746725         1.014537
 H        -0.459114        -0.784906         0.352024
 H        -0.475084         0.914875        -0.194342
 H        -0.254595        -0.475974        -1.434201
 H         1.776453        -2.058387         0.835492
 H         2.561982        -1.938006        -0.705055
 H         4.087884        -1.258726         1.741209
 H         4.267342         1.723536        -0.638870
 H         2.145776         1.412794        -1.958657
 H         2.910181        -0.301431        -1.967392
 H         3.323024         1.450430         2.004080
