19
Iteration:  3219charge 0 multiplicity 1
 C        -0.030689        -0.182383        -0.448169
 C         1.425878        -0.071409        -0.143837
 C         2.342085        -1.325049         0.250282
 C         3.554557        -0.737025         0.910002
 O         4.499127        -0.173031        -0.000559
 C         3.640556         0.986534        -0.229422
 C         2.524398         0.579354        -1.212386
 C         2.916473         0.764266         1.147644
 O         1.547873         0.787050         1.016948
 H        -0.598590        -0.246679         0.480424
 H        -0.214370         0.756111        -0.898733
 H        -0.370298        -1.138590        -0.957338
 H         1.860475        -1.943430         1.080223
 H         2.547490        -1.895554        -0.657168
 H         4.133736        -1.221345         1.682089
 H         4.362093         1.864244        -0.436652
 H         2.102252         1.421053        -1.751912
 H         2.977283        -0.108504        -1.962259
 H         3.282012         1.293542         2.034370
