19
Iteration:   868
 C         0.041237        -0.321728        -0.509571
 C         1.482753        -0.121881        -0.076252
 C         2.321074        -1.323496         0.320281
 C         3.584446        -0.670609         0.946037
 O         4.437797        -0.220040        -0.130297
 C         3.672364         1.004604        -0.292200
 C         2.406662         0.741002        -1.183760
 C         3.012791         0.799826         1.124510
 O         1.509506         0.746737         1.116177
 H        -0.524150        -0.715468         0.345660
 H        -0.396738         0.500519        -0.988692
 H         0.041422        -1.016966        -1.324355
 H         1.880043        -1.984994         1.127291
 H         2.635245        -1.922972        -0.511024
 H         4.059880        -1.094860         1.901818
 H         4.201723         1.899683        -0.556887
 H         1.936868         1.753484        -1.263759
 H         2.567778         0.172224        -2.154600
 H         3.498139         1.462989         1.867297
