19
Iteration:  1281charge 0 multiplicity 1
 C         0.229245        -0.418542        -0.638515
 C         1.468165        -0.061491        -0.089356
 C         2.202838        -1.315204         0.412602
 C         3.609686        -0.645672         0.905806
 O         4.389491        -0.261611        -0.233959
 C         3.605057         0.992585        -0.263342
 C         2.290511         0.756944        -1.073187
 C         3.072374         0.815482         1.161776
 O         1.600890         0.825057         1.155318
 H        -0.437155        -1.064147        -0.023661
 H        -0.403369         0.277964        -1.195359
 H         0.553367        -1.146119        -1.436846
 H         1.604628        -1.731295         1.263441
 H         2.452730        -2.191770        -0.257289
 H         4.018090        -1.209031         1.682923
 H         4.150012         1.970199        -0.430782
 H         1.911536         1.799509        -1.222201
 H         2.472727         0.189715        -2.029232
 H         3.411612         1.380021         2.082335
