19
Iteration:  3187charge 0 multiplicity 1
 C         0.122561        -0.397110        -0.669198
 C         1.497171        -0.078300        -0.136845
 C         2.157053        -1.279171         0.403750
 C         3.507884        -0.699086         0.950116
 O         4.418810        -0.251408        -0.127128
 C         3.642634         0.976990        -0.283512
 C         2.400394         0.752076        -1.101035
 C         3.032982         0.749274         1.154629
 O         1.645930         0.853086         1.095699
 H        -0.506271        -0.427353         0.206986
 H        -0.218044         0.426850        -1.255025
 H         0.119534        -1.315220        -1.334330
 H         1.692859        -1.757526         1.300467
 H         2.333770        -2.128810        -0.231931
 H         3.991665        -1.092365         1.836535
 H         4.340204         1.846120        -0.492231
 H         1.939767         1.670490        -1.104223
 H         2.731575         0.520136        -2.130473
 H         3.525303         1.110666         2.054463
