19
Iteration:  3112
 C        -0.074366        -0.193359        -0.491478
 C         1.443972        -0.078657        -0.168857
 C         2.240400        -1.288034         0.317395
 C         3.533119        -0.703403         0.933776
 O         4.637589        -0.129209        -0.017356
 C         3.649062         0.930165        -0.243357
 C         2.461438         0.524531        -1.106252
 C         2.949670         0.679819         1.152032
 O         1.578989         0.853455         0.940885
 H        -0.485915        -0.935512         0.186241
 H        -0.646580         0.715261        -0.236427
 H        -0.251921        -0.388909        -1.616458
 H         1.759745        -1.881386         1.143961
 H         2.440046        -1.968479        -0.503012
 H         4.101069        -1.183359         1.742549
 H         4.177223         1.876404        -0.440874
 H         2.109990         1.463278        -1.490685
 H         2.718916        -0.173130        -2.034196
 H         3.493040         1.213706         1.916194
