19
Iteration:  4794
 C        -0.032119        -0.058335        -0.449642
 C         1.535773        -0.174369        -0.242294
 C         2.253971        -1.415038         0.347983
 C         3.507392        -0.645093         0.939137
 O         4.487666        -0.228615         0.047368
 C         3.665621         0.996627        -0.237222
 C         2.518737         0.641277        -1.176708
 C         2.947892         0.699864         1.149191
 O         1.603517         0.773829         0.890733
 H        -0.215581         0.758914        -1.118956
 H        -0.444861        -1.046736        -0.806084
 H        -0.395459         0.266880         0.518094
 H         1.591843        -1.737875         1.193687
 H         2.636918        -2.151133        -0.364714
 H         3.899844        -1.210195         1.857824
 H         4.153581         1.883341        -0.602062
 H         1.759970         1.438479        -1.398322
 H         2.866356         0.016235        -2.039568
 H         3.242043         1.289943         1.944581
