19
Iteration:  4731charge 0 multiplicity 1
 C         0.152166        -0.317557        -0.681488
 C         1.552485        -0.023160        -0.182281
 C         2.230819        -1.293554         0.426817
 C         3.512310        -0.756060         1.014359
 O         4.348299        -0.359872        -0.158289
 C         3.666900         0.904135        -0.247410
 C         2.377073         0.824154        -1.092524
 C         3.003278         0.766708         1.233233
 O         1.649090         0.877075         1.032283
 H         0.164558        -0.443222        -1.816119
 H        -0.293251        -1.233539        -0.218876
 H        -0.675072         0.395459        -0.506140
 H         1.483397        -1.615914         1.188411
 H         2.407692        -2.066895        -0.328850
 H         4.192725        -1.262028         1.777160
 H         4.435723         1.688658        -0.321527
 H         1.961580         1.787864        -1.146231
 H         2.490852         0.394154        -2.028780
 H         3.250302         1.596158         1.931678
