19
Iteration:  2430
 C         0.189949        -0.372409        -0.676726
 C         1.512673        -0.111878        -0.019201
 C         2.231090        -1.332351         0.476376
 C         3.548306        -0.633024         0.911193
 O         4.294124        -0.325773        -0.219122
 C         3.630915         0.999715        -0.296659
 C         2.331086         0.750478        -1.050810
 C         3.094443         0.825667         1.170648
 O         1.640338         0.868490         1.074874
 H        -0.359475        -1.029345        -0.049873
 H        -0.291160         0.523643        -1.131709
 H         0.583280        -0.973672        -1.565004
 H         1.491523        -1.644267         1.273228
 H         2.281871        -2.127586        -0.218356
 H         4.074665        -1.199083         1.730636
 H         4.297741         1.864244        -0.553388
 H         1.804833         1.641580        -1.326586
 H         2.533620         0.213036        -1.961750
 H         3.482943         1.310576         2.097409
