19
Iteration:  4080charge 0 multiplicity 1
 C        -0.082395        -0.171767        -0.505435
 C         1.457217        -0.101740        -0.201230
 C         2.258214        -1.328553         0.275062
 C         3.494052        -0.689027         0.890951
 O         4.553026        -0.189274        -0.008978
 C         3.683156         0.990137        -0.236356
 C         2.531020         0.634229        -1.110414
 C         2.992218         0.739776         1.136904
 O         1.573784         0.727920         1.033117
 H        -0.508978        -0.222043         0.535666
 H        -0.528112         0.732425        -1.034757
 H        -0.377655        -1.085797        -0.964876
 H         1.852378        -1.931257         1.081521
 H         2.400794        -1.934570        -0.626957
 H         4.027831        -1.261358         1.678725
 H         4.237222         1.951825        -0.439427
 H         2.007550         1.635029        -1.531718
 H         2.954110         0.209453        -2.032944
 H         3.224077         1.183309         2.118308
