19
Iteration:  2390
 C         0.006720        -0.235223        -0.373012
 C         1.490071        -0.062284        -0.210635
 C         2.315318        -1.300511         0.227222
 C         3.557996        -0.692011         0.964082
 O         4.518846        -0.183681         0.048079
 C         3.596737         0.990755        -0.262782
 C         2.374529         0.556739        -1.217182
 C         3.020603         0.781915         1.124898
 O         1.591003         0.756795         0.965216
 H        -0.439797        -0.470925         0.622123
 H        -0.422188         0.826431        -0.516559
 H        -0.302517        -0.847219        -1.244910
 H         1.894438        -1.807546         1.103781
 H         2.513813        -2.162578        -0.515026
 H         4.039786        -1.208167         1.765524
 H         4.174800         1.857921        -0.720512
 H         1.859793         1.594290        -1.524464
 H         2.629151         0.056838        -2.138544
 H         3.271619         1.292096         2.087212
