19
Iteration:  2787charge 0 multiplicity 1
 C         0.061669        -0.178005        -0.446760
 C         1.513183        -0.101650        -0.172313
 C         2.308943        -1.341392         0.280816
 C         3.544309        -0.701178         0.985103
 O         4.483006        -0.189940         0.030913
 C         3.514090         1.004041        -0.318484
 C         2.434558         0.587984        -1.182521
 C         3.014820         0.760117         1.144797
 O         1.615852         0.797916         1.007985
 H        -0.553164        -0.846015         0.157303
 H        -0.415398         0.803397        -0.275916
 H        -0.214541        -0.427086        -1.527168
 H         1.550439        -2.000463         0.812511
 H         2.672096        -1.945038        -0.535399
 H         3.887755        -1.408680         1.762473
 H         4.103072         1.821460        -0.632981
 H         1.855112         1.345221        -1.612382
 H         2.790634        -0.074382        -2.014610
 H         3.364692         1.422111         1.925004
