19
Iteration:  3875charge 0 multiplicity 1
 C         0.155166        -0.327013        -0.800532
 C         1.514782        -0.086458        -0.043030
 C         2.195849        -1.337029         0.454073
 C         3.468711        -0.681627         1.050518
 O         4.385112        -0.370643        -0.146843
 C         3.605940         1.027652        -0.323148
 C         2.373145         0.805044        -1.076672
 C         3.115305         0.795747         1.132921
 O         1.652660         0.847798         1.142262
 H        -0.720093        -0.579462        -0.159439
 H        -0.309963         0.496189        -1.358881
 H         0.439874        -1.102768        -1.488594
 H         1.490137        -1.951624         1.093500
 H         2.522525        -2.121543        -0.275095
 H         4.130125        -1.344455         1.609153
 H         4.283364         1.864523        -0.531467
 H         1.823491         1.764565        -1.194519
 H         2.409405         0.394946        -2.146209
 H         3.496692         1.363893         1.967341
