19
Iteration:  4419charge 0 multiplicity 1
 C         0.001704        -0.296706        -0.632295
 C         1.454061        -0.010209        -0.125658
 C         2.226336        -1.310599         0.276652
 C         3.520579        -0.702896         0.967408
 O         4.490006        -0.311160        -0.082892
 C         3.692162         0.945241        -0.187432
 C         2.360254         0.722357        -1.140615
 C         3.054307         0.749921         1.183433
 O         1.626505         0.873320         1.074524
 H        -0.530578        -1.079902        -0.021664
 H        -0.627179         0.560307        -0.574275
 H         0.260400        -0.558462        -1.637332
 H         1.745522        -1.869156         1.093982
 H         2.519181        -1.986764        -0.544112
 H         4.049194        -1.310734         1.672077
 H         4.407689         1.754139        -0.493573
 H         1.972626         1.642584        -1.371607
 H         2.616375         0.168307        -2.020035
 H         3.326365         1.296784         2.099645
