19
Iteration:  3856charge 0 multiplicity 1
 C         0.096648        -0.269608        -0.637548
 C         1.502698        -0.053263        -0.167857
 C         2.284081        -1.316318         0.409292
 C         3.521306        -0.657214         0.945675
 O         4.412454        -0.309768        -0.128783
 C         3.700778         0.872307        -0.228094
 C         2.400294         0.735110        -1.047797
 C         2.987810         0.820621         1.159831
 O         1.565290         0.806044         1.020823
 H        -0.531401        -0.665426         0.177412
 H        -0.264724         0.711135        -0.707390
 H         0.193842        -0.820319        -1.564199
 H         1.693397        -1.752510         1.243927
 H         2.353370        -2.097612        -0.377684
 H         4.054767        -1.178515         1.786853
 H         4.327393         1.634985        -0.634192
 H         1.992965         1.725919        -1.171647
 H         2.629097         0.294848        -2.107604
 H         3.298510         1.399002         2.042118
