19
Iteration:  3785charge 0 multiplicity 1
 C        -0.039058        -0.198485        -0.583779
 C         1.448808        -0.107587        -0.215039
 C         2.300520        -1.357773         0.313602
 C         3.538001        -0.692841         1.039616
 O         4.514202        -0.225875        -0.017183
 C         3.662461         0.872734        -0.269654
 C         2.366002         0.696657        -1.165108
 C         3.019681         0.793912         1.127378
 O         1.634985         0.814439         1.043842
 H        -0.545175        -0.726150         0.171486
 H        -0.506259         0.797573        -0.430559
 H        -0.114565        -0.638340        -1.568442
 H         1.616112        -1.944921         0.950715
 H         2.855465        -2.004889        -0.371109
 H         3.894738        -1.157832         1.936019
 H         4.223593         1.817466        -0.500453
 H         2.055822         1.748119        -1.478819
 H         2.561450         0.110373        -1.998503
 H         3.334511         1.274905         2.062602
