19
Iteration:  3233
 C        -0.026288        -0.099940        -0.380344
 C         1.560973        -0.177833        -0.208791
 C         2.329623        -1.448275         0.200650
 C         3.489382        -0.612138         0.974039
 O         4.516160        -0.163578        -0.007729
 C         3.618976         0.975892        -0.245553
 C         2.480007         0.552310        -1.161596
 C         2.951745         0.777143         1.175925
 O         1.550784         0.800133         0.968194
 H        -0.380442        -0.223670         0.606985
 H        -0.422460         0.908040        -0.764098
 H        -0.418118        -0.769557        -1.163488
 H         1.783831        -2.315600         0.708834
 H         2.846075        -1.992309        -0.631912
 H         3.785687        -1.213174         1.859132
 H         4.013713         1.949240        -0.536378
 H         2.065748         1.402625        -1.551178
 H         2.806118        -0.127273        -2.059431
 H         3.314061         1.366406         2.076416
