19
Iteration:  3792
 C        -0.041819        -0.160668        -0.513269
 C         1.428082        -0.071424        -0.149213
 C         2.317989        -1.357922         0.299403
 C         3.564949        -0.693357         0.990781
 O         4.564472        -0.250349         0.042247
 C         3.666689         0.901512        -0.240252
 C         2.390665         0.663424        -1.230609
 C         2.973352         0.776676         1.104491
 O         1.580193         0.816023         1.003761
 H        -0.610758        -0.898391         0.158170
 H        -0.544529         0.814926        -0.456986
 H        -0.314052        -0.559460        -1.564047
 H         1.815097        -2.041427         0.961981
 H         2.672595        -1.778671        -0.665687
 H         4.064695        -1.183627         1.863579
 H         4.242891         1.773963        -0.475082
 H         2.021923         1.619948        -1.464860
 H         2.734035        -0.004425        -2.092784
 H         3.323976         1.281655         2.030923
