19
Iteration:  4687
 C         0.081200        -0.153982        -0.637153
 C         1.533360        -0.065845        -0.188810
 C         2.191395        -1.336153         0.292970
 C         3.578768        -0.689371         0.976938
 O         4.424264        -0.235505        -0.055224
 C         3.597776         0.968036        -0.215374
 C         2.439313         0.622324        -1.100120
 C         3.039264         0.773999         1.205112
 O         1.607366         0.765801         1.052599
 H        -0.178958        -1.148559        -1.057341
 H        -0.402939         0.020340         0.368819
 H        -0.220261         0.734750        -1.225008
 H         1.585391        -1.910829         1.022092
 H         2.381604        -2.006216        -0.563421
 H         4.123669        -1.479159         1.588185
 H         4.118986         1.834219        -0.645706
 H         1.950366         1.476646        -1.451492
 H         2.652428         0.012937        -1.929640
 H         3.269315         1.327826         2.099965
