19
Iteration:  3931
 C        -0.034232        -0.191145        -0.497573
 C         1.512042        -0.093110        -0.178831
 C         2.268760        -1.426842         0.285636
 C         3.508379        -0.683526         0.975455
 O         4.413302        -0.208847         0.005691
 C         3.688249         0.975211        -0.218758
 C         2.480246         0.750122        -1.182699
 C         3.016523         0.749630         1.144209
 O         1.626478         0.771826         0.926218
 H        -0.330192        -0.465402         0.556691
 H        -0.509059         0.681288        -0.863761
 H        -0.142993        -1.082748        -1.053580
 H         1.621709        -1.760022         1.155822
 H         2.467963        -2.189333        -0.512307
 H         4.063669        -1.259272         1.746897
 H         4.358128         1.810801        -0.312812
 H         1.908554         1.646451        -1.294880
 H         2.641305         0.082996        -2.124997
 H         3.322709         1.339181         2.021524
