19
Iteration:   883
 C         0.021123        -0.242839        -0.411064
 C         1.507114        -0.116201        -0.179855
 C         2.339925        -1.424886         0.287360
 C         3.548308        -0.642665         0.942635
 O         4.512355        -0.124393        -0.046792
 C         3.574975         0.988396        -0.265908
 C         2.352112         0.661046        -1.146015
 C         2.971260         0.792486         1.176893
 O         1.647373         0.739277         0.959542
 H        -0.494204        -0.533488         0.501632
 H        -0.350847         0.813012        -0.648545
 H        -0.281919        -0.988950        -1.187413
 H         1.684172        -1.974598         0.934945
 H         2.617558        -2.103398        -0.525434
 H         4.127408        -1.322141         1.586153
 H         4.189115         1.858217        -0.531351
 H         1.762707         1.552435        -1.479209
 H         2.642779         0.069742        -1.995863
 H         3.092321         1.383783         2.054920
