19
Iteration:  1882charge 0 multiplicity 1
 C         0.037497        -0.430251        -0.628327
 C         1.469194        -0.099603        -0.082917
 C         2.271778        -1.312101         0.440808
 C         3.553083        -0.685455         0.902602
 O         4.423898        -0.229164        -0.160292
 C         3.629133         1.007179        -0.246074
 C         2.386509         0.729690        -1.114188
 C         3.031675         0.798712         1.177965
 O         1.631218         0.872255         1.079130
 H        -0.645461        -1.024255         0.003627
 H        -0.555076         0.457091        -0.910027
 H         0.197613        -1.070632        -1.511296
 H         1.902561        -1.975181         1.212595
 H         2.487504        -1.918194        -0.407925
 H         4.181108        -1.174268         1.636405
 H         4.209455         1.832911        -0.393750
 H         1.866858         1.621041        -1.461573
 H         2.758394         0.195917        -2.005602
 H         3.483405         1.447844         1.904730
