19
Iteration:   333
 C        -0.095296        -0.153940        -0.439868
 C         1.410546        -0.142184        -0.043312
 C         2.380524        -1.368553         0.155492
 C         3.578189        -0.706687         0.900338
 O         4.574202        -0.079018         0.042159
 C         3.605141         0.964976        -0.284103
 C         2.394027         0.547396        -1.197914
 C         3.050427         0.743370         1.134458
 O         1.546243         0.779872         1.048618
 H        -0.894215        -0.551263         0.191343
 H        -0.471628         0.913193        -0.573376
 H        -0.386824        -0.735117        -1.366849
 H         2.154557        -2.203977         0.914531
 H         2.754904        -1.884346        -0.838767
 H         4.177498        -1.293213         1.777060
 H         4.018785         1.920186        -0.531992
 H         1.971891         1.533114        -1.485062
 H         2.838819        -0.128229        -2.043206
 H         3.344711         1.380150         1.972706
