19
Iteration:  4297charge 0 multiplicity 1
 C         0.056208        -0.388194        -0.683023
 C         1.479241        -0.041055        -0.207961
 C         2.248249        -1.342777         0.420624
 C         3.519044        -0.735333         0.921443
 O         4.363219        -0.349398        -0.134751
 C         3.679755         1.010202        -0.221468
 C         2.375264         0.913190        -1.053993
 C         3.051126         0.751168         1.202919
 O         1.712643         0.823374         1.097949
 H        -0.610773        -0.273274         0.220271
 H        -0.159641         0.335580        -1.569756
 H         0.072175        -1.326187        -1.209596
 H         1.465802        -1.830191         1.075149
 H         2.279672        -2.101170        -0.433437
 H         3.955861        -1.303992         1.787873
 H         4.362878         1.927290        -0.544067
 H         1.882728         1.848015        -1.167518
 H         2.640971         0.591813        -2.028299
 H         3.309723         1.313801         2.082376
