19
Iteration:  4128charge 0 multiplicity 1
 C        -0.015532        -0.169978        -0.563047
 C         1.519400        -0.073569        -0.143208
 C         2.279357        -1.365894         0.255458
 C         3.512200        -0.647953         0.944780
 O         4.493956        -0.235678        -0.044244
 C         3.650394         0.968559        -0.261686
 C         2.394733         0.681054        -1.087629
 C         2.992555         0.787592         1.169507
 O         1.599908         0.712462         1.058936
 H        -0.716907        -0.466681         0.300948
 H        -0.240941         0.829054        -0.915271
 H        -0.171455        -0.904147        -1.460616
 H         1.725850        -1.987591         0.982497
 H         2.724049        -2.005144        -0.509845
 H         3.990301        -1.278139         1.684261
 H         4.283949         1.780469        -0.479648
 H         2.143557         1.619255        -1.498268
 H         2.693358         0.018417        -1.941413
 H         3.384863         1.381359         1.999970
