19
Iteration:   773
 C         0.024682        -0.207595        -0.365107
 C         1.511659        -0.097448        -0.148219
 C         2.388044        -1.428847         0.156972
 C         3.517239        -0.651576         0.956623
 O         4.586915        -0.094238        -0.000422
 C         3.587277         0.977916        -0.296373
 C         2.307415         0.535255        -1.183463
 C         2.940269         0.752009         1.152067
 O         1.575925         0.804445         1.023243
 H        -0.509038        -0.745800         0.452549
 H        -0.404790         0.851092        -0.502888
 H        -0.177774        -0.681506        -1.373416
 H         1.816329        -2.103337         0.884157
 H         2.729196        -1.924279        -0.707476
 H         3.928140        -1.092653         1.921173
 H         4.288140         1.801460        -0.562171
 H         1.762260         1.452888        -1.494074
 H         2.571447        -0.069053        -2.048952
 H         3.391361         1.368787         1.961270
