19
Iteration:  1494
 C        -0.068492        -0.199499        -0.336005
 C         1.519242        -0.163670        -0.226423
 C         2.404875        -1.398025         0.225380
 C         3.584809        -0.615243         0.999844
 O         4.563744        -0.144026        -0.036356
 C         3.627678         0.998894        -0.272258
 C         2.426541         0.586194        -1.286622
 C         2.915111         0.790923         1.127197
 O         1.500882         0.745617         1.038842
 H        -0.344073        -0.642587         0.671060
 H        -0.221900         0.888994        -0.412882
 H        -0.576360        -0.819791        -1.087312
 H         1.804697        -2.050342         0.816854
 H         2.712230        -2.003791        -0.713122
 H         4.114375        -1.106483         1.842213
 H         4.042013         1.988157        -0.349989
 H         1.856088         1.469945        -1.408960
 H         2.909448         0.038306        -2.098847
 H         3.070772         1.391049         2.087113
