19
Iteration:  4045charge 0 multiplicity 1
 C         0.143982        -0.359794        -0.725821
 C         1.526387        -0.005161        -0.098247
 C         2.275614        -1.271450         0.373155
 C         3.498647        -0.702604         1.012826
 O         4.311651        -0.356407        -0.112846
 C         3.579038         0.975810        -0.262607
 C         2.349910         0.803413        -1.078201
 C         3.060963         0.766749         1.163907
 O         1.699384         0.838199         1.088586
 H        -0.380994        -0.878648        -0.008817
 H        -0.534858         0.412496        -1.139329
 H         0.386311        -1.029807        -1.555311
 H         1.617851        -1.946031         0.966804
 H         2.620215        -1.835529        -0.502520
 H         3.914717        -1.323586         1.841847
 H         4.278866         1.810738        -0.578955
 H         1.761312         1.831046        -1.077235
 H         2.674927         0.352755        -2.027144
 H         3.584357         1.190368         2.017467
