19
Iteration:   840
 C         0.168378        -0.463566        -0.661487
 C         1.495584        -0.076248        -0.091691
 C         2.228627        -1.279065         0.406908
 C         3.582277        -0.705184         0.957531
 O         4.304635        -0.259944        -0.221216
 C         3.642438         1.008009        -0.246767
 C         2.293775         0.810232        -1.113328
 C         3.116909         0.809673         1.227611
 O         1.665671         0.832843         1.109042
 H        -0.402178        -1.127527        -0.000767
 H        -0.483444         0.314455        -1.249994
 H         0.521753        -1.195571        -1.473995
 H         1.644073        -1.708175         1.228479
 H         2.379670        -2.162254        -0.297459
 H         4.109660        -1.206555         1.757859
 H         4.214460         1.980832        -0.579102
 H         1.705462         1.763599        -1.151175
 H         2.301976         0.203785        -1.970527
 H         3.464279         1.503735         1.951681
