19
Iteration:  3351
 C        -0.003287        -0.243523        -0.527777
 C         1.477186        -0.109633        -0.220619
 C         2.317660        -1.411286         0.348906
 C         3.474218        -0.702533         0.991214
 O         4.516426        -0.198212        -0.047641
 C         3.648966         0.942870        -0.287542
 C         2.425641         0.722466        -1.139983
 C         2.999334         0.814994         1.167988
 O         1.606672         0.794165         1.018588
 H        -0.596538        -0.383868         0.327910
 H        -0.315799         0.704800        -1.023336
 H        -0.192563        -1.002838        -1.315364
 H         1.697638        -2.000006         1.062879
 H         2.594522        -2.137613        -0.407553
 H         4.004143        -1.105338         1.844530
 H         4.306241         1.817268        -0.510142
 H         1.910266         1.651999        -1.244637
 H         2.472336         0.243687        -2.191185
 H         3.393575         1.290638         2.099238
