19
Iteration:  2790charge 0 multiplicity 1
 C         0.069700        -0.162971        -0.412653
 C         1.518828        -0.131703        -0.181169
 C         2.316489        -1.358040         0.269396
 C         3.519262        -0.691597         0.968988
 O         4.466918        -0.178746         0.046121
 C         3.523776         0.999879        -0.318887
 C         2.448794         0.553331        -1.194782
 C         2.994437         0.764905         1.174033
 O         1.607117         0.802143         0.983830
 H        -0.564350        -0.747202         0.166337
 H        -0.301447         0.888444        -0.180094
 H        -0.213766        -0.437576        -1.435436
 H         1.617085        -2.048868         0.805723
 H         2.780582        -1.917824        -0.602045
 H         3.939636        -1.409423         1.757171
 H         4.152813         1.837682        -0.726921
 H         1.841730         1.496345        -1.583536
 H         2.778062         0.048566        -2.072058
 H         3.407782         1.404267         1.901473
