19
Iteration:   863charge 0 multiplicity 1
 C         0.059987        -0.366253        -0.552494
 C         1.475109        -0.080569        -0.072537
 C         2.344776        -1.281449         0.371072
 C         3.553020        -0.653315         0.933497
 O         4.432017        -0.245557        -0.159520
 C         3.631250         0.982733        -0.284276
 C         2.430153         0.762798        -1.159884
 C         3.042158         0.788036         1.109937
 O         1.515263         0.749012         1.158292
 H        -0.557145        -0.795357         0.256734
 H        -0.451887         0.558129        -1.030297
 H         0.078374        -1.159175        -1.369885
 H         1.805858        -1.929538         1.037965
 H         2.621310        -1.945376        -0.545174
 H         3.988281        -1.043346         1.799621
 H         4.340095         1.837423        -0.734333
 H         1.839007         1.670056        -1.201814
 H         2.637409         0.255941        -2.067537
 H         3.419017         1.446344         1.898950
