19
Iteration:  3277charge 0 multiplicity 1
 C         0.059360        -0.321956        -0.623289
 C         1.416240        -0.062442        -0.163119
 C         2.266313        -1.292966         0.388982
 C         3.483199        -0.655577         0.972174
 O         4.535511        -0.258218        -0.182692
 C         3.699140         0.918663        -0.226274
 C         2.425086         0.699407        -1.095293
 C         3.006734         0.795873         1.183458
 O         1.565169         0.827683         1.089196
 H        -0.312540        -1.078962         0.039337
 H        -0.699701         0.515656        -0.591810
 H         0.094687        -0.598814        -1.667827
 H         1.592044        -1.683063         1.214356
 H         2.461976        -2.164018        -0.294743
 H         4.112665        -1.198228         1.695743
 H         4.272463         1.758044        -0.607674
 H         1.958187         1.574937        -1.388453
 H         2.700154         0.139079        -2.039967
 H         3.254852         1.428466         2.061662
