19
Iteration:  1752charge 0 multiplicity 1
 C         0.065191        -0.218755        -0.449987
 C         1.532101        -0.140099        -0.144396
 C         2.367592        -1.434725         0.316146
 C         3.550722        -0.689310         0.964919
 O         4.488431        -0.168598        -0.070334
 C         3.546246         1.005269        -0.288139
 C         2.414123         0.683705        -1.203197
 C         2.924622         0.793457         1.120203
 O         1.557905         0.781764         1.017644
 H        -0.341867        -0.613480         0.490115
 H        -0.384941         0.782914        -0.577947
 H        -0.181001        -0.971056        -1.227775
 H         1.782144        -2.022131         1.134012
 H         2.777702        -2.054598        -0.396708
 H         4.078820        -1.108201         1.814170
 H         4.167688         1.939765        -0.525206
 H         1.874495         1.560506        -1.427441
 H         2.716108         0.176834        -2.108457
 H         3.277720         1.279572         2.041044
