19
Iteration:   847
 C         0.136100        -0.477933        -0.674427
 C         1.491269        -0.038728        -0.102382
 C         2.230836        -1.274341         0.375091
 C         3.558362        -0.617831         0.959069
 O         4.362958        -0.302151        -0.223831
 C         3.655149         0.986002        -0.302155
 C         2.272289         0.793560        -1.045660
 C         3.047162         0.852656         1.229589
 O         1.680559         0.778244         1.134363
 H        -0.442560        -0.954435         0.124664
 H        -0.422031         0.298529        -1.168307
 H         0.357267        -1.149973        -1.487446
 H         1.671107        -1.713484         1.245179
 H         2.551704        -1.987298        -0.313454
 H         4.173332        -1.281270         1.696486
 H         4.158281         1.854661        -0.531878
 H         1.935788         1.821059        -1.338563
 H         2.474157         0.177744        -1.983190
 H         3.466919         1.413053         2.083571
