19
Iteration:  3737
 C         0.121389        -0.410420        -0.795862
 C         1.508614         0.019957        -0.139417
 C         2.259577        -1.328761         0.478246
 C         3.530245        -0.730545         0.981443
 O         4.299240        -0.340216        -0.310180
 C         3.635685         0.990586        -0.165085
 C         2.423582         0.782747        -1.059084
 C         3.091412         0.746523         1.292738
 O         1.602507         0.924326         1.073388
 H        -0.606034        -0.585737         0.119091
 H        -0.498104         0.284061        -1.326220
 H         0.400261        -1.394988        -1.321892
 H         1.737623        -1.394279         1.393728
 H         2.318457        -2.199288        -0.185633
 H         4.148439        -1.307829         1.745079
 H         4.158197         1.876507        -0.432776
 H         1.947580         1.656563        -1.251162
 H         2.900040         0.380584        -2.076786
 H         3.530875         1.275104         2.168803
