19
Iteration:  3423
 C         0.166651        -0.276938        -0.583462
 C         1.531139        -0.041522        -0.128917
 C         2.301585        -1.324816         0.355085
 C         3.499501        -0.715142         1.006881
 O         4.391868        -0.233271        -0.075190
 C         3.642498         0.917895        -0.349184
 C         2.346719         0.715960        -1.136401
 C         3.002201         0.761013         1.233327
 O         1.611396         0.804037         0.978420
 H        -0.550756        -0.640317         0.238173
 H        -0.314825         0.654161        -0.876012
 H         0.021938        -0.952895        -1.487617
 H         1.718960        -1.721859         1.264081
 H         2.615312        -2.209160        -0.289623
 H         3.938349        -1.276759         1.848138
 H         4.282594         1.805208        -0.499460
 H         1.868166         1.786068        -1.206278
 H         2.380256         0.374838        -2.112038
 H         3.421712         1.384040         2.061642
