19
Iteration:   833
 C         0.191841        -0.468916        -0.662361
 C         1.522716        -0.057535        -0.073729
 C         2.270135        -1.325387         0.479817
 C         3.558948        -0.758307         0.940182
 O         4.281200        -0.219954        -0.218597
 C         3.572300         1.039002        -0.221873
 C         2.333119         0.817062        -1.129746
 C         3.152391         0.749248         1.167530
 O         1.634058         0.885450         1.091742
 H        -0.463382        -1.156051        -0.099513
 H        -0.414657         0.312062        -1.043843
 H         0.568090        -1.143579        -1.421875
 H         1.602392        -1.681486         1.265912
 H         2.222734        -2.160206        -0.310851
 H         4.135774        -1.258740         1.695255
 H         4.368007         1.784099        -0.535546
 H         1.582415         1.583400        -1.124939
 H         2.401436         0.426205        -2.187755
 H         3.451287         1.485884         1.960428
