19
Iteration:  3443charge 0 multiplicity 1
 C         0.184420        -0.366801        -0.726042
 C         1.530511        -0.071457        -0.072304
 C         2.240790        -1.331622         0.468858
 C         3.532153        -0.620292         0.971810
 O         4.338908        -0.412349        -0.192101
 C         3.668476         0.961260        -0.273190
 C         2.394562         0.806761        -1.095627
 C         3.009839         0.871033         1.143559
 O         1.581753         0.838716         1.160491
 H        -0.492166        -1.099067        -0.131615
 H        -0.494412         0.443555        -0.954412
 H         0.344377        -0.844789        -1.707543
 H         1.479306        -1.831647         1.164929
 H         2.602628        -1.923905        -0.458578
 H         4.175534        -1.147477         1.746468
 H         4.314108         1.717921        -0.703623
 H         1.906018         1.809724        -1.261210
 H         2.628587         0.411115        -2.026479
 H         3.389358         1.428656         2.003598
