19
Iteration:  4243
 C        -0.093127        -0.091913        -0.511369
 C         1.448299        -0.064522        -0.145612
 C         2.353908        -1.417878         0.135291
 C         3.488577        -0.707945         0.918726
 O         4.542660        -0.114259         0.059336
 C         3.650543         0.916512        -0.274535
 C         2.425228         0.576070        -1.159669
 C         3.047102         0.727159         1.169652
 O         1.598597         0.786963         1.127035
 H        -0.649396        -0.484227         0.372049
 H        -0.412538         0.897776        -0.942193
 H        -0.272366        -0.739164        -1.325426
 H         1.709384        -2.101584         0.770956
 H         2.488595        -1.994514        -0.847856
 H         3.943369        -1.325077         1.737888
 H         4.184647         1.952451        -0.523507
 H         1.835063         1.355382        -1.676884
 H         2.853079        -0.102084        -1.909216
 H         3.534394         1.305569         1.946719
