19
Iteration:  3153
 C         0.199840        -0.293749        -0.709603
 C         1.566731        -0.044633        -0.171939
 C         2.303212        -1.305189         0.474817
 C         3.576745        -0.599785         1.083666
 O         4.213827        -0.383879        -0.243355
 C         3.602787         0.907986        -0.246336
 C         2.401496         0.792615        -1.120024
 C         3.048680         0.805666         1.182284
 O         1.618886         0.793088         1.114705
 H        -0.330912        -0.977647         0.000342
 H        -0.447142         0.504453        -0.899132
 H         0.245537        -0.846245        -1.675277
 H         1.524701        -1.728467         1.143121
 H         2.595362        -1.969620        -0.330323
 H         4.036780        -1.032624         1.943792
 H         4.204690         1.800625        -0.619634
 H         1.857479         1.660166        -1.299823
 H         2.694304         0.354868        -2.041938
 H         3.215321         1.303731         2.087505
