19
Iteration:  3149
 C         0.180594        -0.299783        -0.702030
 C         1.575790        -0.081669        -0.173090
 C         2.305957        -1.273534         0.487005
 C         3.524615        -0.603150         1.062246
 O         4.229848        -0.358582        -0.215997
 C         3.610190         0.934486        -0.254698
 C         2.428278         0.781077        -1.137891
 C         3.039842         0.775238         1.164116
 O         1.624566         0.791099         1.124253
 H        -0.346490        -1.070688        -0.078437
 H        -0.423730         0.664816        -0.773608
 H         0.204450        -0.839959        -1.626742
 H         1.557895        -1.672970         1.147140
 H         2.544722        -1.971960        -0.351892
 H         4.085531        -1.150133         1.871986
 H         4.222924         1.759506        -0.574559
 H         1.792655         1.753087        -1.346362
 H         2.667295         0.247249        -2.066150
 H         3.354224         1.340739         2.083963
