19
Iteration:  3263charge 0 multiplicity 1
 C        -0.021608        -0.214475        -0.507483
 C         1.556891        -0.079450        -0.179087
 C         2.312716        -1.323186         0.340285
 C         3.577974        -0.636879         0.975988
 O         4.487692        -0.244214         0.008081
 C         3.636494         0.928665        -0.348694
 C         2.418088         0.699431        -1.208361
 C         2.953913         0.760794         1.163947
 O         1.552815         0.738640         1.028546
 H        -0.560273        -0.843309         0.183710
 H        -0.397083         0.784821        -0.446044
 H        -0.179335        -0.667013        -1.536194
 H         1.779042        -1.890014         1.161226
 H         2.636352        -2.043520        -0.398692
 H         3.925760        -1.190739         1.838001
 H         4.233556         1.879148        -0.500225
 H         2.065916         1.696915        -1.379691
 H         2.560920         0.167905        -2.192798
 H         3.390890         1.347789         2.009571
