19
Iteration:  1012charge 0 multiplicity 1
 C         0.086076        -0.348774        -0.536780
 C         1.472571        -0.042089        -0.094337
 C         2.331570        -1.342434         0.345987
 C         3.560639        -0.688133         0.881871
 O         4.407745        -0.143162        -0.114130
 C         3.599251         1.012889        -0.274456
 C         2.341354         0.678357        -1.076494
 C         3.027627         0.750161         1.190349
 O         1.622431         0.764589         1.013426
 H        -0.472820        -0.663466         0.305800
 H        -0.403836         0.529893        -0.965386
 H         0.138747        -1.065090        -1.353289
 H         1.814204        -1.939699         1.237575
 H         2.470732        -1.922990        -0.557902
 H         4.140845        -1.281733         1.751973
 H         4.348935         1.812691        -0.493076
 H         1.882013         1.662979        -1.423168
 H         2.504216         0.061512        -1.975194
 H         3.379976         1.401371         2.013629
