19
Iteration:   740charge 0 multiplicity 1
 C        -0.097114        -0.302728        -0.369704
 C         1.486192        -0.051459        -0.200276
 C         2.324942        -1.371035         0.236130
 C         3.554536        -0.631243         0.955903
 O         4.535893        -0.141081        -0.078437
 C         3.664854         1.002978        -0.258979
 C         2.449442         0.641710        -1.227782
 C         2.979927         0.755109         1.175557
 O         1.582503         0.741421         1.023892
 H        -0.559976        -0.710082         0.580409
 H        -0.647926         0.677541        -0.576760
 H        -0.295502        -1.078697        -1.166030
 H         1.641213        -1.873116         1.037744
 H         2.556518        -2.140941        -0.427880
 H         4.015864        -1.143728         1.868160
 H         4.186501         1.989492        -0.494311
 H         1.924483         1.524633        -1.587032
 H         2.917288         0.016220        -1.996173
 H         3.335206         1.390580         2.063127
