19
Iteration:  3311
 C         0.219893        -0.400132        -0.725926
 C         1.586853        -0.026441        -0.130829
 C         2.232503        -1.336707         0.488152
 C         3.471444        -0.690328         0.996563
 O         4.266761        -0.290838        -0.239828
 C         3.636993         0.974717        -0.216159
 C         2.331496         0.779468        -1.191861
 C         3.042266         0.748316         1.228566
 O         1.669029         0.918091         1.155068
 H        -0.233270        -1.271689        -0.181637
 H        -0.511789         0.459813        -0.834403
 H         0.484462        -0.881393        -1.635971
 H         1.579362        -1.733548         1.310183
 H         2.459956        -2.251749        -0.170743
 H         4.004609        -1.319509         1.770346
 H         4.178984         1.773132        -0.649574
 H         1.917822         1.744117        -1.420224
 H         2.747501         0.323975        -2.086401
 H         3.453879         1.315273         2.038968
