19
Iteration:  2081charge 0 multiplicity 1
 C        -0.062873        -0.160225        -0.322324
 C         1.497655        -0.174542        -0.191719
 C         2.343832        -1.368658         0.198867
 C         3.554131        -0.602010         0.971097
 O         4.602591        -0.096907        -0.010197
 C         3.545208         0.957990        -0.241363
 C         2.412936         0.578418        -1.216442
 C         2.943152         0.777497         1.125521
 O         1.618402         0.694148         0.978295
 H        -0.650038        -0.457581         0.618080
 H        -0.319922         0.900806        -0.588749
 H        -0.538815        -0.568379        -1.237373
 H         1.636419        -2.009799         0.903543
 H         2.716294        -1.955269        -0.573322
 H         3.976972        -1.159398         1.830365
 H         4.142004         1.838083        -0.413111
 H         1.998732         1.427983        -1.814728
 H         2.771725        -0.270703        -1.937532
 H         3.245772         1.370773         2.002285
