19
Iteration:  2453
 C         0.159543        -0.381026        -0.719532
 C         1.535413        -0.084852        -0.133859
 C         2.323094        -1.292306         0.598312
 C         3.592910        -0.724934         1.074199
 O         4.257975        -0.337101        -0.259265
 C         3.595551         0.941046        -0.313464
 C         2.358689         0.866505        -1.158871
 C         3.086541         0.837061         1.137792
 O         1.602821         0.795814         1.106014
 H        -0.271392        -0.949636         0.070540
 H        -0.369641         0.600356        -0.968652
 H         0.117147        -0.970956        -1.710557
 H         1.527624        -1.559634         1.345733
 H         2.490136        -2.178440        -0.034214
 H         4.150623        -1.285623         1.853198
 H         4.273166         1.847517        -0.549487
 H         1.966930         1.900610        -1.065745
 H         2.415580         0.654774        -2.175756
 H         3.419151         1.432976         2.032849
