19
Iteration:   194charge 0 multiplicity 1
 C         0.043465        -0.167319        -0.345595
 C         1.549788        -0.154395        -0.270254
 C         2.329615        -1.457350         0.276325
 C         3.538628        -0.711301         0.907905
 O         4.472599        -0.118386        -0.021096
 C         3.596811         0.972481        -0.237846
 C         2.425857         0.652120        -1.206232
 C         2.891403         0.793960         1.171189
 O         1.581151         0.763161         0.988868
 H        -0.347315        -0.489590         0.622750
 H        -0.219514         0.903273        -0.303205
 H        -0.200353        -0.739535        -1.236553
 H         1.759375        -2.001511         1.048596
 H         2.583175        -2.136986        -0.450093
 H         4.111402        -1.013494         1.793702
 H         4.130898         1.981239        -0.721979
 H         1.859372         1.494738        -1.606183
 H         2.907958         0.011648        -2.032283
 H         3.362423         1.308770         2.015263
