19
Iteration:  3095
 C        -0.089692        -0.131340        -0.398648
 C         1.481882        -0.111699        -0.189142
 C         2.356663        -1.347699         0.196462
 C         3.522280        -0.684703         0.984322
 O         4.527204        -0.197034         0.106307
 C         3.615339         0.944313        -0.244727
 C         2.443196         0.549672        -1.322267
 C         2.992556         0.847423         1.148996
 O         1.589245         0.775667         1.012309
 H        -0.570505        -0.846791         0.311719
 H        -0.384003         0.930200        -0.165087
 H        -0.292338        -0.441540        -1.390748
 H         1.800598        -2.011025         0.843773
 H         2.575794        -1.996255        -0.699046
 H         4.048138        -1.389151         1.698050
 H         4.192084         1.813107        -0.618834
 H         2.126270         1.435080        -1.974756
 H         2.849288        -0.232071        -1.899227
 H         3.242478         1.465189         2.065605
