19
Iteration:  1883
 C         0.029847        -0.421276        -0.623054
 C         1.464777        -0.098850        -0.082997
 C         2.270996        -1.313311         0.431256
 C         3.563230        -0.683415         0.896564
 O         4.425846        -0.232814        -0.149766
 C         3.624504         1.014448        -0.244460
 C         2.394277         0.725592        -1.119277
 C         3.028517         0.799226         1.180007
 O         1.632570         0.866344         1.075239
 H        -0.658363        -1.028891         0.007874
 H        -0.576977         0.451572        -0.891970
 H         0.194049        -1.080034        -1.484063
 H         1.924295        -2.014742         1.206695
 H         2.481351        -1.907257        -0.368294
 H         4.174813        -1.174139         1.641241
 H         4.233072         1.872291        -0.428155
 H         1.901638         1.598408        -1.458366
 H         2.736148         0.192643        -2.028416
 H         3.456403         1.464455         1.906303
