19
Iteration:   789
 C        -0.004632        -0.271923        -0.499394
 C         1.472281        -0.145519        -0.144613
 C         2.342641        -1.327133         0.356706
 C         3.577231        -0.640653         0.979109
 O         4.444859        -0.180992        -0.060123
 C         3.585784         0.987802        -0.305832
 C         2.389996         0.714939        -1.213161
 C         3.021547         0.814933         1.127569
 O         1.619957         0.699734         1.072122
 H        -0.532934        -0.843028         0.259599
 H        -0.393607         0.712785        -0.487249
 H        -0.203318        -0.803379        -1.406228
 H         1.841375        -2.039581         0.972318
 H         2.741810        -2.017736        -0.477083
 H         4.104298        -1.245622         1.686490
 H         4.005221         1.968315        -0.581022
 H         1.960790         1.672610        -1.519193
 H         2.754029         0.057362        -2.034424
 H         3.383502         1.423514         1.956486
