19
Iteration:  1630charge 0 multiplicity 1
 C        -0.006985        -0.211627        -0.350491
 C         1.444091        -0.127275        -0.175837
 C         2.320285        -1.461318         0.171029
 C         3.558352        -0.685554         0.932871
 O         4.498978        -0.001278         0.112217
 C         3.634851         1.012630        -0.307976
 C         2.365823         0.533833        -1.244921
 C         3.042799         0.759058         1.087070
 O         1.602681         0.770957         1.035963
 H        -0.519503        -0.581098         0.503284
 H        -0.315119         0.842426        -0.545323
 H        -0.387429        -0.918293        -1.110761
 H         1.865508        -2.022900         1.031603
 H         2.513335        -1.935786        -0.790270
 H         4.143936        -1.364507         1.619361
 H         4.093182         2.022275        -0.540380
 H         2.044727         1.413628        -1.672642
 H         2.571601        -0.150061        -2.033839
 H         3.371550         1.322494         1.994838
