19
Iteration:   720
 C         0.145315        -0.375097        -0.497455
 C         1.548817        -0.074903        -0.171690
 C         2.268814        -1.288918         0.432707
 C         3.542654        -0.690606         0.908633
 O         4.391155        -0.227991        -0.156887
 C         3.582443         1.032026        -0.265321
 C         2.378278         0.759324        -1.141224
 C         2.994517         0.788161         1.170244
 O         1.603441         0.746641         1.022920
 H        -0.363675        -0.692287         0.394525
 H        -0.335833         0.574579        -0.830470
 H         0.014046        -1.174145        -1.237427
 H         1.717560        -1.816528         1.226481
 H         2.506620        -2.060216        -0.290466
 H         4.043897        -1.285833         1.628454
 H         4.374414         1.819555        -0.448687
 H         1.877711         1.672580        -1.371172
 H         2.658585         0.184503        -1.966660
 H         3.376966         1.455472         1.967342
