19
Iteration:  2144
 C         0.149573        -0.550504        -0.753408
 C         1.481731        -0.018439        -0.067576
 C         2.184340        -1.309373         0.460284
 C         3.523589        -0.688579         0.856345
 O         4.275600        -0.255107        -0.193636
 C         3.627950         0.993079        -0.301387
 C         2.383158         0.816516        -1.063372
 C         3.075061         0.809727         1.203001
 O         1.734015         0.896086         1.199745
 H        -0.383551        -1.274273        -0.067455
 H        -0.404605         0.213596        -1.243595
 H         0.553197        -1.222029        -1.497076
 H         1.609073        -1.701684         1.357481
 H         2.290082        -2.180479        -0.190222
 H         4.112938        -1.113198         1.704826
 H         4.250131         1.755051        -0.658644
 H         1.884133         1.742644        -1.300527
 H         2.496238         0.264188        -2.089802
 H         3.646502         1.414627         2.048993
