19
Iteration:  3217
 C        -0.037349        -0.196532        -0.462239
 C         1.436739        -0.056826        -0.136155
 C         2.317740        -1.301364         0.261896
 C         3.565314        -0.759493         0.914504
 O         4.500139        -0.167519        -0.005122
 C         3.653381         0.980006        -0.233215
 C         2.504805         0.587615        -1.212823
 C         2.918175         0.779065         1.145369
 O         1.557434         0.773714         1.017273
 H        -0.641768        -0.252145         0.500982
 H        -0.246351         0.709750        -0.966567
 H        -0.284074        -1.149470        -0.973293
 H         1.918305        -1.904782         1.087370
 H         2.526922        -1.963524        -0.600361
 H         4.111228        -1.298501         1.685349
 H         4.368554         1.847167        -0.377195
 H         2.069921         1.486651        -1.841221
 H         2.984996        -0.060947        -1.882288
 H         3.278729         1.274164         2.009131
