19
Iteration:  1997
 C         0.158641        -0.491358        -0.731056
 C         1.552506        -0.115317        -0.084900
 C         2.270643        -1.296525         0.516647
 C         3.558119        -0.624816         0.959599
 O         4.248415        -0.366659        -0.312389
 C         3.602820         1.034928        -0.219397
 C         2.395064         0.860170        -1.040337
 C         3.107905         0.820987         1.185023
 O         1.609078         0.846571         1.092490
 H        -0.481344        -1.111962        -0.097322
 H        -0.521471         0.351821        -0.962038
 H         0.460104        -1.191797        -1.537525
 H         1.631515        -1.675295         1.295821
 H         2.490454        -2.085633        -0.250035
 H         4.130241        -1.132532         1.755314
 H         4.356417         1.936146        -0.488832
 H         1.684953         1.683003        -0.980682
 H         2.615592         0.592750        -2.040633
 H         3.477304         1.472270         1.958203
