19
Iteration:  1760
 C        -0.021443        -0.232305        -0.367603
 C         1.518542        -0.150833        -0.131353
 C         2.409992        -1.393055         0.268654
 C         3.540412        -0.666220         0.972567
 O         4.519853        -0.133098        -0.046415
 C         3.614371         1.013495        -0.273214
 C         2.440471         0.634446        -1.211249
 C         2.937109         0.784555         1.146325
 O         1.549862         0.752117         0.964705
 H        -0.577515        -0.493923         0.534235
 H        -0.369102         0.788973        -0.720397
 H        -0.420946        -0.718975        -1.285997
 H         1.776864        -1.927174         0.904115
 H         2.670416        -2.100618        -0.591106
 H         4.044580        -1.351709         1.715873
 H         4.138998         1.852075        -0.509276
 H         1.790060         1.495921        -1.455063
 H         2.713574        -0.047766        -1.997313
 H         3.165807         1.493094         2.025870
