19
Iteration:  3135
 C         0.116021        -0.335762        -0.617126
 C         1.511046        -0.083887        -0.129727
 C         2.190517        -1.343367         0.426801
 C         3.493026        -0.717308         0.930731
 O         4.390148        -0.259685        -0.097996
 C         3.671711         1.021894        -0.282224
 C         2.421895         0.719660        -1.151999
 C         3.038414         0.827649         1.184382
 O         1.618567         0.794890         1.059422
 H        -0.510610        -0.981051        -0.048714
 H        -0.400641         0.694505        -0.536488
 H         0.139653        -0.437460        -1.736504
 H         1.654107        -1.679117         1.351504
 H         2.468500        -2.221114        -0.155915
 H         4.028625        -1.366184         1.686168
 H         4.372128         1.832596        -0.437372
 H         1.896699         1.647381        -1.489295
 H         2.726278         0.113367        -2.135723
 H         3.488402         1.540152         1.954413
