19
Iteration:  4899charge 0 multiplicity 1
 C         0.093258        -0.174202        -0.557293
 C         1.541698        -0.086417        -0.178942
 C         2.252833        -1.347108         0.423423
 C         3.519037        -0.716314         1.061944
 O         4.364156        -0.311362        -0.041375
 C         3.649588         0.941120        -0.227510
 C         2.504900         0.643764        -1.219623
 C         2.963970         0.838190         1.119287
 O         1.627157         0.834149         0.974530
 H        -0.507585         0.384995         0.142968
 H        -0.205579         0.171810        -1.610505
 H        -0.270803        -1.227196        -0.497116
 H         1.547942        -1.887125         1.056764
 H         2.457353        -2.064061        -0.393721
 H         4.002813        -1.160662         1.908565
 H         4.104124         1.891676        -0.628553
 H         2.036835         1.515024        -1.599652
 H         2.762183         0.088843        -2.141084
 H         3.227162         1.505865         1.942848
