19
Iteration:   161
 C        -0.085149        -0.278376        -0.401067
 C         1.380205        -0.023979        -0.145519
 C         2.368803        -1.371993         0.228276
 C         3.554691        -0.644500         0.913473
 O         4.603909        -0.189684         0.024349
 C         3.660163         0.977282        -0.266515
 C         2.380976         0.646898        -1.198007
 C         2.969535         0.778800         1.135862
 O         1.599956         0.777593         1.041607
 H        -0.626050        -0.802419         0.388810
 H        -0.566843         0.690405        -0.685882
 H        -0.148956        -0.843837        -1.353623
 H         1.766363        -2.113163         0.783751
 H         2.636446        -1.854515        -0.650375
 H         3.921753        -1.127657         1.823458
 H         4.566213         1.680429        -0.677337
 H         1.889059         1.471739        -1.684611
 H         2.618309        -0.176747        -1.960339
 H         3.252135         1.438791         1.933074
