19
Iteration:  2599charge 0 multiplicity 1
 C         0.178320        -0.471556        -0.697589
 C         1.457815        -0.025152        -0.070525
 C         2.136165        -1.250398         0.517320
 C         3.546808        -0.665432         0.922328
 O         4.381257        -0.317041        -0.206215
 C         3.733120         1.003523        -0.307794
 C         2.342989         0.810526        -1.028073
 C         3.112642         0.731303         1.125207
 O         1.606816         0.871729         1.097835
 H        -0.372099        -1.248647        -0.052589
 H        -0.590630         0.289574        -0.890550
 H         0.454384        -0.817383        -1.672787
 H         1.600076        -1.595560         1.425486
 H         2.076213        -2.125673        -0.222349
 H         4.120084        -1.290276         1.539283
 H         4.482942         1.755800        -0.561482
 H         1.944739         1.785132        -1.229682
 H         2.341438         0.313852        -2.018737
 H         3.356375         1.243426         2.051518
