19
Iteration:   144charge 0 multiplicity 1
 C         0.053746        -0.343585        -0.552176
 C         1.512367        -0.096225        -0.112458
 C         2.293774        -1.325084         0.283249
 C         3.509889        -0.701771         0.957226
 O         4.457186        -0.201473        -0.065556
 C         3.616179         0.934477        -0.309576
 C         2.375313         0.668680        -1.114901
 C         3.035789         0.814598         1.140198
 O         1.597204         0.878998         1.071269
 H        -0.406848        -0.823133         0.354190
 H        -0.494014         0.580806        -0.699131
 H         0.097880        -1.015845        -1.410648
 H         1.792401        -1.981247         1.041483
 H         2.596916        -2.020275        -0.605301
 H         4.070191        -1.283847         1.700498
 H         3.981905         1.832069        -0.552279
 H         1.924412         1.705374        -1.224036
 H         2.547517         0.201250        -2.034460
 H         3.570836         1.330721         2.004272
