19
Iteration:  2989charge 0 multiplicity 1
 C         0.040915        -0.235659        -0.584751
 C         1.506907        -0.142364        -0.141937
 C         2.331654        -1.322143         0.428141
 C         3.510785        -0.645005         1.077021
 O         4.413758        -0.333601        -0.154100
 C         3.629566         0.927462        -0.218373
 C         2.370448         0.764577        -1.153172
 C         3.039542         0.746180         1.148105
 O         1.620977         0.819180         0.969221
 H        -0.720632        -0.614167         0.167525
 H        -0.236084         0.740265        -0.893457
 H         0.026851        -0.776561        -1.526673
 H         1.727310        -1.800854         1.218724
 H         2.748779        -1.983982        -0.357695
 H         4.117177        -1.146395         1.808670
 H         4.323913         1.814595        -0.478419
 H         1.831544         1.721236        -1.263387
 H         2.616319         0.380983        -2.130632
 H         3.167627         1.545979         1.915723
