19
Iteration:   415
 C         0.128528        -0.404205        -0.683778
 C         1.503676        -0.008564        -0.071884
 C         2.244266        -1.289135         0.402059
 C         3.523737        -0.702306         0.941095
 O         4.395819        -0.270128        -0.230066
 C         3.615947         0.963804        -0.269849
 C         2.324802         0.761576        -1.115292
 C         3.056614         0.825260         1.181953
 O         1.654263         0.791020         1.212381
 H        -0.456764        -1.064846        -0.056654
 H        -0.446077         0.332652        -1.204608
 H         0.557881        -1.053263        -1.440410
 H         1.689899        -1.790693         1.128486
 H         2.546948        -1.951865        -0.394431
 H         4.083438        -1.275109         1.582173
 H         4.200729         1.899200        -0.537465
 H         1.906231         1.808506        -1.184398
 H         2.386535         0.384637        -2.134519
 H         3.274634         1.395249         2.082705
