19
Iteration:  1965charge 0 multiplicity 1
 C         0.050660        -0.351978        -0.550869
 C         1.524847        -0.088600        -0.076711
 C         2.273157        -1.297201         0.343362
 C         3.562784        -0.664586         0.892345
 O         4.493400        -0.207501        -0.107026
 C         3.567671         0.989722        -0.300784
 C         2.413830         0.679028        -1.198530
 C         3.031931         0.768661         1.180252
 O         1.555908         0.801101         1.148124
 H        -0.408006        -0.884724         0.235128
 H        -0.449568         0.538750        -0.945244
 H         0.134054        -0.931184        -1.491067
 H         1.661752        -1.665578         1.145019
 H         2.364634        -2.107809        -0.464079
 H         4.073725        -1.193699         1.710126
 H         4.069247         2.006832        -0.575423
 H         1.753105         1.543076        -1.415719
 H         2.701615         0.183749        -2.092252
 H         3.529773         1.368203         1.936165
