19
Iteration:  4978
 C         0.139661        -0.263192        -0.594260
 C         1.529785        -0.070700        -0.111737
 C         2.232463        -1.360499         0.499822
 C         3.510837        -0.634015         1.042094
 O         4.288631        -0.409144        -0.106235
 C         3.734066         0.946185        -0.220927
 C         2.457843         0.713142        -1.228785
 C         3.079804         0.876977         1.180769
 O         1.556768         0.874071         0.898236
 H        -0.512134        -0.851094         0.064141
 H        -0.457930         0.689058        -0.691491
 H         0.141852        -0.996849        -1.408630
 H         1.538914        -1.771952         1.283277
 H         2.442131        -2.104478        -0.286248
 H         4.072982        -1.179137         1.853940
 H         4.402454         1.819177        -0.420793
 H         1.940200         1.586100        -1.536533
 H         2.717829         0.038323        -2.083495
 H         3.287543         1.611238         1.910871
