19
Iteration:  4287charge 0 multiplicity 1
 C         0.164144        -0.274322        -0.585283
 C         1.569949        -0.055721        -0.225915
 C         2.224062        -1.370441         0.378403
 C         3.475309        -0.772300         0.898755
 O         4.396431        -0.295258        -0.126689
 C         3.646205         1.009535        -0.204591
 C         2.412383         0.853177        -1.107627
 C         3.014948         0.751863         1.178882
 O         1.580226         0.796376         1.054941
 H        -0.407132        -0.185488         0.371292
 H        -0.322531         0.389762        -1.330320
 H        -0.070037        -1.277088        -0.843278
 H         1.654081        -1.714001         1.297669
 H         2.455274        -2.238456        -0.310768
 H         4.017752        -1.408305         1.625395
 H         4.446001         1.831639        -0.338500
 H         1.970782         1.840614        -1.058772
 H         2.509358         0.528539        -2.144420
 H         3.351429         1.286406         2.046558
