19
Iteration:  1917
 C         0.055775        -0.188060        -0.324380
 C         1.492171        -0.217542        -0.259320
 C         2.364292        -1.344832         0.258366
 C         3.509492        -0.645082         0.941501
 O         4.532164        -0.103563         0.043899
 C         3.567472         0.961331        -0.224975
 C         2.420571         0.645229        -1.290593
 C         2.925088         0.737189         1.068647
 O         1.570917         0.728928         1.034184
 H        -0.142646        -0.517067         0.746944
 H        -0.117505         0.882719        -0.475570
 H        -0.497655        -0.680417        -1.126558
 H         1.869476        -2.108367         0.951572
 H         2.829295        -1.827838        -0.484456
 H         3.790648        -1.230085         1.819546
 H         4.071954         1.927881        -0.524173
 H         1.926221         1.501398        -1.651568
 H         2.626638        -0.066668        -2.124752
 H         3.292998         1.506301         1.752376
