19
Iteration:  1671charge 0 multiplicity 1
 C         0.013450        -0.340864        -0.551308
 C         1.518657        -0.105500        -0.121275
 C         2.319093        -1.354804         0.401993
 C         3.586578        -0.612572         0.941506
 O         4.371460        -0.235535        -0.149624
 C         3.639385         1.002455        -0.280945
 C         2.413072         0.771795        -1.159434
 C         3.017049         0.828070         1.180951
 O         1.585392         0.726664         1.062354
 H        -0.497695        -0.886103         0.296147
 H        -0.576040         0.599849        -0.688828
 H         0.003433        -0.993956        -1.464144
 H         1.734079        -1.880646         1.108530
 H         2.750525        -2.205078        -0.329684
 H         4.228546        -1.122420         1.727353
 H         4.338584         1.753597        -0.455509
 H         1.847173         1.686354        -1.481782
 H         2.738858         0.223835        -2.071559
 H         3.348501         1.479242         1.980965
