19
Iteration:  4052
 C         0.149380        -0.315532        -0.691362
 C         1.501456         0.021390        -0.104240
 C         2.273457        -1.286499         0.318830
 C         3.487698        -0.724349         1.004569
 O         4.394264        -0.326868        -0.063902
 C         3.595511         0.913333        -0.304443
 C         2.291388         0.818379        -1.093280
 C         3.075591         0.770141         1.186265
 O         1.648398         0.822037         1.083859
 H        -0.404801        -0.809143         0.165997
 H        -0.386029         0.461705        -1.170628
 H         0.337901        -1.163335        -1.414608
 H         1.793099        -1.948752         1.074106
 H         2.524921        -1.800405        -0.623672
 H         4.039612        -1.337853         1.703136
 H         4.199470         1.748491        -0.541373
 H         1.898846         1.789085        -1.264642
 H         2.717270         0.226514        -1.955499
 H         3.416066         1.325522         2.080431
