19
Iteration:   525
 C         0.131716        -0.419074        -0.670713
 C         1.479485        -0.126166        -0.079956
 C         2.288101        -1.340988         0.464028
 C         3.573409        -0.580281         0.917116
 O         4.358439        -0.312227        -0.201727
 C         3.611529         0.922297        -0.251901
 C         2.313964         0.840516        -1.100805
 C         3.105036         0.824309         1.177444
 O         1.623135         0.843206         1.097384
 H        -0.511793        -0.894846         0.010224
 H        -0.394793         0.459757        -1.042069
 H         0.276249        -1.030676        -1.563555
 H         1.831278        -1.833355         1.235536
 H         2.531188        -2.104706        -0.331873
 H         3.957476        -1.188650         1.666262
 H         4.254585         1.803800        -0.430496
 H         1.725919         1.841330        -1.244420
 H         2.533107         0.359562        -2.049888
 H         3.368518         1.419775         2.121753
