19
Iteration:   384charge 0 multiplicity 1
 C         0.180982        -0.428885        -0.595700
 C         1.554936        -0.052104        -0.136382
 C         2.221541        -1.368413         0.498808
 C         3.539326        -0.735836         0.943206
 O         4.303521        -0.270491        -0.302990
 C         3.647924         1.022530        -0.196270
 C         2.376015         0.910056        -1.080777
 C         3.003448         0.774685         1.182373
 O         1.648128         0.814872         1.033554
 H        -0.300851        -1.048124         0.172154
 H        -0.569140         0.311787        -0.950752
 H         0.330896        -1.068985        -1.497690
 H         1.649290        -1.752980         1.308617
 H         2.535453        -2.235755        -0.192376
 H         4.232073        -1.117166         1.619671
 H         4.281248         1.871204        -0.381655
 H         1.850253         1.865292        -1.150592
 H         2.584068         0.535351        -2.024581
 H         3.204031         1.241705         2.182140
