19
Iteration:   435
 C         0.067925        -0.277335        -0.558953
 C         1.535762        -0.098234        -0.072342
 C         2.280206        -1.344980         0.290817
 C         3.563200        -0.682858         0.930137
 O         4.450876        -0.191124        -0.077046
 C         3.587371         1.012237        -0.310877
 C         2.346256         0.724379        -1.090203
 C         3.068583         0.759864         1.131692
 O         1.565489         0.734711         1.088623
 H        -0.582939        -0.667591         0.236491
 H        -0.309489         0.673713        -0.834228
 H        -0.032797        -0.854480        -1.456233
 H         1.789528        -1.872486         1.115061
 H         2.533702        -2.016542        -0.431618
 H         4.104402        -1.136481         1.758440
 H         4.253069         1.894185        -0.660414
 H         1.826860         1.637323        -1.551172
 H         2.517424         0.005014        -1.971385
 H         3.562448         1.297386         1.934480
