19
Iteration:  1341
 C        -0.015226        -0.230644        -0.335289
 C         1.478104        -0.173785        -0.189695
 C         2.299119        -1.363518         0.210345
 C         3.551575        -0.668532         0.879235
 O         4.527332        -0.038295         0.045767
 C         3.609675         0.979617        -0.257006
 C         2.439802         0.573202        -1.218693
 C         2.948739         0.798959         1.099483
 O         1.562659         0.748592         1.019912
 H        -0.277117        -0.489230         0.717419
 H        -0.223111         0.879850        -0.324741
 H        -0.324944        -0.853553        -1.200843
 H         1.857284        -2.008799         1.013287
 H         2.718322        -1.999174        -0.640834
 H         4.105992        -1.440340         1.635331
 H         4.156937         1.853948        -0.702805
 H         2.181514         1.472441        -1.734640
 H         2.711547        -0.161055        -1.977063
 H         3.225709         1.178075         2.067156
