19
Iteration:  1109charge 0 multiplicity 1
 C         0.211580        -0.453645        -0.691557
 C         1.502240        -0.066355        -0.059542
 C         2.206824        -1.210200         0.421959
 C         3.573962        -0.656390         0.994035
 O         4.402530        -0.308734        -0.224286
 C         3.594681         0.982862        -0.288617
 C         2.247978         0.806023        -1.114566
 C         3.056371         0.797907         1.175391
 O         1.633973         0.771167         1.128446
 H        -0.347085        -1.053352         0.036760
 H        -0.473786         0.384689        -0.947772
 H         0.466892        -1.076558        -1.585423
 H         1.686040        -1.675778         1.336578
 H         2.444809        -1.868918        -0.314676
 H         4.285676        -1.147554         1.730730
 H         4.100169         2.024938        -0.394628
 H         1.784406         1.752016        -1.390410
 H         2.508246         0.308926        -2.044957
 H         3.550502         1.323242         2.026103
