19
Iteration:  4446charge 0 multiplicity 1
 C         0.177899        -0.264708        -0.647343
 C         1.595429        -0.080607        -0.195638
 C         2.158716        -1.379183         0.441656
 C         3.529843        -0.681344         1.006806
 O         4.289017        -0.301982        -0.246146
 C         3.635323         1.013166        -0.184191
 C         2.452993         0.815948        -1.092177
 C         3.058665         0.737917         1.175342
 O         1.584596         0.756900         1.067266
 H        -0.451432        -0.625639         0.151761
 H        -0.046224         0.803060        -1.026611
 H         0.179369        -1.072332        -1.438248
 H         1.538515        -1.441057         1.348835
 H         2.243937        -2.323803        -0.106462
 H         4.241815        -1.275949         1.674557
 H         4.400774         1.712827        -0.470192
 H         1.941437         1.930121        -1.075183
 H         2.772102         0.453222        -2.132095
 H         3.206464         1.395368         2.041483
