19
Iteration:  2413
 C         0.000661        -0.382039        -0.605377
 C         1.470198         0.013710        -0.097811
 C         2.234703        -1.314380         0.444018
 C         3.497419        -0.688953         0.956125
 O         4.457136        -0.232918        -0.197801
 C         3.662665         0.985258        -0.278310
 C         2.468534         0.665705        -1.121147
 C         3.043405         0.777963         1.145551
 O         1.598880         0.827992         1.127037
 H        -0.586903        -0.825034         0.263560
 H        -0.534618         0.552471        -0.893555
 H         0.188421        -0.956762        -1.500839
 H         1.835222        -1.979716         1.188570
 H         2.531872        -1.998873        -0.446028
 H         4.086964        -1.191220         1.692394
 H         4.250221         1.876122        -0.573586
 H         1.912305         1.560840        -1.628338
 H         2.756620         0.018655        -1.977828
 H         3.447320         1.512959         1.859070
