19
Iteration:   914
 C        -0.052306        -0.208924        -0.342375
 C         1.472485        -0.107697        -0.139548
 C         2.329880        -1.415335         0.253162
 C         3.563109        -0.630074         0.876043
 O         4.560873        -0.089983        -0.032580
 C         3.615288         0.993218        -0.256655
 C         2.510645         0.614521        -1.270603
 C         2.904963         0.783091         1.148630
 O         1.568015         0.699692         1.043795
 H        -0.415388        -0.643352         0.546653
 H        -0.483955         0.770040        -0.531069
 H        -0.388111        -0.630050        -1.275880
 H         1.698615        -1.999869         0.961321
 H         2.632660        -2.046325        -0.516468
 H         4.144840        -1.288661         1.669360
 H         4.112361         1.882857        -0.442789
 H         1.933702         1.426393        -1.777991
 H         2.850339        -0.264696        -1.803022
 H         3.045051         1.469999         1.930127
