19
Iteration:  4146
 C        -0.004960        -0.303100        -0.730708
 C         1.394379        -0.049213        -0.087991
 C         2.223561        -1.295381         0.367271
 C         3.550060        -0.732681         0.979944
 O         4.462028        -0.269181        -0.103417
 C         3.697631         0.961029        -0.229627
 C         2.375058         0.788964        -1.145624
 C         3.103496         0.754321         1.181562
 O         1.663401         0.798554         1.118802
 H        -0.500253        -1.119399        -0.133796
 H        -0.635347         0.575482        -0.934554
 H         0.211821        -0.826677        -1.635332
 H         1.697370        -1.879269         1.131647
 H         2.402636        -1.941754        -0.515105
 H         3.912787        -1.248712         1.896264
 H         4.341559         1.807688        -0.639176
 H         1.699074         1.746046        -1.069307
 H         2.584221         0.295900        -2.163550
 H         3.528844         1.408549         1.968441
