19
Iteration:  4820
 C         0.019088        -0.193146        -0.556688
 C         1.502028        -0.046264        -0.158327
 C         2.247628        -1.327092         0.351595
 C         3.506043        -0.671449         1.004890
 O         4.457918        -0.286441        -0.042762
 C         3.663811         0.896032        -0.252732
 C         2.509646         0.648984        -1.195907
 C         3.018202         0.809328         1.174105
 O         1.544428         0.796497         1.017918
 H        -0.372051         0.864694        -0.740377
 H        -0.065837        -0.834955        -1.412177
 H        -0.574727        -0.638117         0.290783
 H         1.594152        -1.850503         1.038401
 H         2.674363        -1.926331        -0.463825
 H         3.966965        -1.282798         1.768813
 H         4.192548         1.789326        -0.635844
 H         2.034307         1.472737        -1.605753
 H         2.792058        -0.037867        -1.938782
 H         3.438662         1.658219         1.860247
