19
Iteration:    39charge 0 multiplicity 1
 C        -0.156838        -0.255350        -0.291741
 C         1.442752        -0.041662        -0.238155
 C         2.374380        -1.298615         0.192344
 C         3.515785        -0.639363         0.927911
 O         4.538956        -0.163254         0.013473
 C         3.693118         0.963193        -0.216396
 C         2.443810         0.591098        -1.189423
 C         2.994013         0.769777         1.140978
 O         1.572701         0.722015         0.931949
 H        -0.260887        -0.798009         0.652666
 H        -0.626762         0.759596        -0.358974
 H        -0.499775        -0.828253        -1.182666
 H         1.885738        -2.032374         0.894519
 H         2.775165        -2.042364        -0.498599
 H         4.028163        -1.079458         1.861992
 H         4.285617         2.018279        -0.668517
 H         2.154049         1.537357        -1.684006
 H         2.938011        -0.111387        -1.935228
 H         3.165729         1.343388         2.045800
