19
Iteration:  3670
 C        -0.068411        -0.109320        -0.394003
 C         1.472771        -0.158570        -0.184999
 C         2.306663        -1.424915         0.239149
 C         3.436547        -0.750573         1.037035
 O         4.519465        -0.113202         0.003351
 C         3.638572         1.042660        -0.206708
 C         2.483433         0.592270        -1.272490
 C         3.050634         0.776439         1.177865
 O         1.623699         0.759475         0.904195
 H        -0.741152        -0.625036         0.393555
 H        -0.426629         0.929944        -0.313784
 H        -0.421635        -0.461219        -1.363296
 H         1.748190        -2.039151         0.898703
 H         2.689659        -1.911920        -0.662263
 H         3.962039        -1.312096         1.870771
 H         4.310549         1.860791        -0.416575
 H         2.032464         1.362938        -1.736879
 H         2.908511        -0.271522        -1.907082
 H         3.125780         1.287813         2.126980
