19
Iteration:  2299
 C         0.150266        -0.456661        -0.708453
 C         1.450621        -0.008463        -0.128231
 C         2.296358        -1.320458         0.561895
 C         3.564478        -0.608425         0.994967
 O         4.283979        -0.319137        -0.317298
 C         3.673368         0.959259        -0.203383
 C         2.320769         0.785093        -1.040603
 C         3.109719         0.817707         1.162178
 O         1.634356         0.810738         1.068440
 H        -0.674619        -0.917267        -0.225626
 H        -0.334569         0.488483        -1.035981
 H         0.446784        -1.072001        -1.602282
 H         1.588413        -1.587556         1.433832
 H         2.524481        -2.141188        -0.009837
 H         4.052926        -1.234694         1.788053
 H         4.190907         1.783741        -0.659724
 H         1.928573         1.823816        -1.141324
 H         2.651896         0.394943        -2.043019
 H         3.457912         1.353485         1.978803
