19
Iteration:  4589charge 0 multiplicity 1
 C         0.139904        -0.316015        -0.802675
 C         1.472833        -0.006420        -0.076091
 C         2.200797        -1.262784         0.409667
 C         3.548345        -0.674739         0.872471
 O         4.382458        -0.303746        -0.164151
 C         3.686566         0.945942        -0.257293
 C         2.350218         0.707077        -1.024139
 C         3.062438         0.748222         1.230551
 O         1.638531         0.803134         1.149781
 H        -0.255737        -1.299034        -0.539155
 H        -0.352310         0.662523        -0.522689
 H         0.291487        -0.455075        -1.881663
 H         1.522261        -1.484527         1.243524
 H         2.296537        -2.049077        -0.380545
 H         3.879158        -1.311237         1.756353
 H         4.332808         1.808348        -0.510428
 H         1.842084         1.727280        -1.078481
 H         2.423460         0.189574        -1.957080
 H         3.468449         1.298350         2.037499
