19
Iteration:  2591
 C         0.149018        -0.500625        -0.709756
 C         1.427705         0.007044        -0.006097
 C         2.111579        -1.308091         0.495960
 C         3.498557        -0.732158         0.841746
 O         4.380828        -0.312500        -0.256482
 C         3.773844         1.029039        -0.269838
 C         2.406011         0.794693        -1.048880
 C         3.121613         0.831822         1.124115
 O         1.583547         0.893926         1.179576
 H        -0.360319        -1.319955        -0.206978
 H        -0.533184         0.185013        -1.111454
 H         0.433707        -0.944322        -1.679966
 H         1.702293        -1.615349         1.503253
 H         2.298916        -2.148423        -0.104071
 H         3.963320        -1.339965         1.702538
 H         4.573621         1.669744        -0.536760
 H         1.919865         1.769915        -1.193572
 H         2.599400         0.183722        -2.063024
 H         3.424818         1.577615         1.959214
