19
Iteration:  3690
 C         0.011105        -0.153612        -0.510633
 C         1.496554        -0.093709        -0.221538
 C         2.359518        -1.310778         0.262753
 C         3.567053        -0.644872         0.959326
 O         4.495975        -0.283364        -0.002032
 C         3.614137         0.910735        -0.237088
 C         2.423012         0.636667        -1.134592
 C         2.953193         0.776547         1.163124
 O         1.544553         0.778682         1.026777
 H        -0.567922        -0.397899         0.446995
 H        -0.426925         0.861231        -0.801901
 H        -0.226663        -0.896544        -1.258294
 H         1.773669        -1.991407         0.919859
 H         2.787588        -1.810103        -0.630660
 H         4.048360        -1.209651         1.795007
 H         4.267684         1.762540        -0.540974
 H         1.987212         1.620221        -1.412089
 H         2.615256         0.029135        -2.082525
 H         3.315101         1.426164         1.958724
