19
Iteration:   867
 C         0.043739        -0.328157        -0.518242
 C         1.481375        -0.116048        -0.073636
 C         2.325025        -1.312063         0.330562
 C         3.580722        -0.670287         0.944089
 O         4.435645        -0.225077        -0.136044
 C         3.665462         0.999840        -0.288285
 C         2.412102         0.747066        -1.182247
 C         3.018357         0.795527         1.119154
 O         1.506915         0.747269         1.125925
 H        -0.529736        -0.736683         0.337472
 H        -0.400497         0.491372        -1.001650
 H         0.047031        -1.034124        -1.334457
 H         1.870495        -1.980473         1.117108
 H         2.640412        -1.938179        -0.535506
 H         4.035161        -1.070708         1.883704
 H         4.240725         1.911203        -0.607976
 H         1.923529         1.733671        -1.238405
 H         2.583741         0.176889        -2.146749
 H         3.499639         1.474933         1.877684
