19
Iteration:  3394
 C        -0.106526        -0.213573        -0.448498
 C         1.461533        -0.094948        -0.167091
 C         2.261915        -1.401372         0.230320
 C         3.511421        -0.669443         0.939131
 O         4.540654        -0.144710        -0.040475
 C         3.735174         1.006944        -0.253528
 C         2.567416         0.594650        -1.184847
 C         2.957530         0.765214         1.162446
 O         1.530159         0.767790         1.049798
 H        -0.466281        -0.234153         0.532914
 H        -0.590854         0.697744        -0.852509
 H        -0.611960        -0.984476        -1.065597
 H         1.707091        -1.814753         1.048278
 H         2.663911        -1.959878        -0.547837
 H         3.942039        -1.257937         1.737535
 H         4.271734         1.979895        -0.476289
 H         2.276731         1.426141        -1.830410
 H         2.993725        -0.244729        -1.909012
 H         3.336772         1.348710         2.042620
