19
Iteration:  1873
 C         0.142830        -0.479219        -0.677373
 C         1.503061        -0.078810        -0.087326
 C         2.278745        -1.326642         0.443959
 C         3.508393        -0.673794         0.986900
 O         4.391849        -0.209049        -0.253829
 C         3.622745         0.947440        -0.245890
 C         2.322140         0.760169        -1.071251
 C         3.080046         0.792319         1.152622
 O         1.610120         0.896393         1.108826
 H        -0.448788        -1.017254         0.099287
 H        -0.284938         0.471791        -1.002692
 H         0.268489        -0.968430        -1.639996
 H         1.534480        -1.619680         1.254971
 H         2.446725        -1.991914        -0.275598
 H         4.080187        -1.269952         1.684923
 H         4.239038         1.885032        -0.423653
 H         1.752852         1.582492        -1.327969
 H         2.688071         0.158469        -1.926815
 H         3.511435         1.254170         2.021194
