19
Iteration:  2935charge 0 multiplicity 1
 C        -0.083367        -0.210856        -0.475764
 C         1.456774         0.011241        -0.178871
 C         2.299836        -1.334108         0.216745
 C         3.543967        -0.717857         0.913417
 O         4.533820        -0.234381         0.041600
 C         3.567164         0.979325        -0.198357
 C         2.479972         0.516262        -1.184708
 C         3.079986         0.764012         1.189181
 O         1.574252         0.896112         1.002365
 H        -0.467460        -1.037123         0.232115
 H        -0.699487         0.614228        -0.257006
 H        -0.464306        -0.616642        -1.388231
 H         1.833148        -2.000614         0.944589
 H         2.619703        -1.894718        -0.711848
 H         4.064748        -1.260658         1.688745
 H         4.190248         1.752843        -0.752753
 H         2.088939         1.321938        -1.906711
 H         2.972302        -0.271423        -1.811923
 H         3.319508         1.490370         2.048630
