19
Iteration:  1047charge 0 multiplicity 1
 C        -0.072017        -0.178630        -0.373322
 C         1.469467        -0.103834        -0.261113
 C         2.432559        -1.416153         0.247878
 C         3.573527        -0.617513         0.985382
 O         4.479491        -0.086420         0.054524
 C         3.608392         0.965978        -0.297215
 C         2.399365         0.636348        -1.248939
 C         2.987425         0.772188         1.096614
 O         1.606341         0.677314         1.064253
 H        -0.405198        -0.623607         0.535605
 H        -0.424241         0.865708        -0.460105
 H        -0.539638        -0.804348        -1.121852
 H         1.937469        -2.149138         0.926696
 H         2.651239        -1.988559        -0.755138
 H         4.043561        -1.350589         1.760888
 H         4.048913         1.846931        -0.639794
 H         1.911122         1.538683        -1.759257
 H         2.640925        -0.106348        -2.028241
 H         3.298153         1.393739         2.016459
