19
Iteration:   308charge 0 multiplicity 1
 C         0.041715        -0.132961        -0.400902
 C         1.523944        -0.115005        -0.197234
 C         2.287552        -1.405427         0.219986
 C         3.514648        -0.668992         0.933908
 O         4.567589        -0.076705        -0.020373
 C         3.609290         1.009996        -0.274624
 C         2.389612         0.573119        -1.194997
 C         3.000822         0.749309         1.181239
 O         1.560148         0.683513         1.025030
 H        -0.453391        -0.630517         0.455621
 H        -0.460318         0.853582        -0.476084
 H        -0.357539        -0.789835        -1.196503
 H         1.745756        -1.921536         1.020483
 H         2.591645        -2.158774        -0.625606
 H         3.991425        -1.226799         1.697122
 H         4.015880         1.945767        -0.531770
 H         1.900492         1.467362        -1.480830
 H         2.660586        -0.048337        -1.958335
 H         3.233579         1.455031         1.975449
