19
Iteration:  4042charge 0 multiplicity 1
 C         0.143135        -0.375833        -0.731950
 C         1.525803        -0.031722        -0.106750
 C         2.266290        -1.274930         0.392771
 C         3.500022        -0.692012         1.011367
 O         4.279313        -0.362511        -0.150606
 C         3.600173         1.012511        -0.225288
 C         2.391279         0.803355        -1.065548
 C         3.065050         0.763267         1.163514
 O         1.705048         0.851308         1.098226
 H        -0.492833        -0.984814        -0.066642
 H        -0.500938         0.377829        -1.045218
 H         0.410705        -0.982432        -1.651860
 H         1.488828        -1.911283         0.916607
 H         2.668936        -1.920359        -0.418747
 H         3.871517        -1.244045         1.868140
 H         4.287941         1.755024        -0.557149
 H         1.793621         1.728173        -1.108452
 H         2.523077         0.437827        -2.171060
 H         3.613549         1.244410         1.984764
