19
Iteration:  3568charge 0 multiplicity 1
 C         0.001709        -0.346680        -0.605325
 C         1.520819        -0.080120        -0.214570
 C         2.246711        -1.324215         0.420636
 C         3.517204        -0.736570         0.957470
 O         4.399329        -0.253545        -0.141483
 C         3.656045         1.003641        -0.176625
 C         2.463232         0.770848        -1.147518
 C         3.082018         0.761053         1.113116
 O         1.604834         0.844571         1.118203
 H        -0.769345        -0.493213         0.127303
 H        -0.293419         0.531558        -1.280916
 H        -0.078543        -1.246185        -1.278556
 H         1.602144        -1.675373         1.253515
 H         2.432543        -2.245583        -0.117838
 H         4.127178        -1.304727         1.624810
 H         4.295866         1.913480        -0.339521
 H         1.978910         1.634837        -1.551825
 H         2.827238         0.286046        -2.063020
 H         3.275325         1.343776         1.998044
