19
Iteration:  4340charge 0 multiplicity 1
 C         0.152147        -0.238872        -0.627479
 C         1.562267        -0.057640        -0.066426
 C         2.186456        -1.331317         0.322844
 C         3.512887        -0.709468         0.927302
 O         4.419470        -0.299312        -0.125636
 C         3.602886         0.998484        -0.275396
 C         2.386275         0.759222        -1.109453
 C         2.992906         0.746131         1.195711
 O         1.632912         0.809338         1.108919
 H        -0.493597        -0.894521         0.014402
 H        -0.292890         0.783471        -0.960221
 H         0.140811        -0.666145        -1.646982
 H         1.600319        -1.821445         1.147609
 H         2.313761        -2.182375        -0.394622
 H         4.107306        -1.258003         1.713968
 H         4.459666         1.711148        -0.549249
 H         1.889253         1.609290        -1.497136
 H         2.659082         0.123047        -1.885015
 H         3.344050         1.212862         2.087723
