19
Iteration:  2140
 C         0.105967        -0.543241        -0.767852
 C         1.513646        -0.021835        -0.092713
 C         2.193538        -1.281740         0.480989
 C         3.561394        -0.667778         0.878235
 O         4.292835        -0.269520        -0.206469
 C         3.600352         0.975226        -0.272556
 C         2.367316         0.786119        -1.069261
 C         3.109074         0.828526         1.188761
 O         1.683563         0.900369         1.196636
 H        -0.329047        -1.181993        -0.029293
 H        -0.536134         0.261195        -1.189912
 H         0.617759        -1.273299        -1.429047
 H         1.597568        -1.635918         1.252653
 H         2.373745        -2.127708        -0.314075
 H         4.158733        -1.234598         1.601312
 H         4.362153         1.759250        -0.658558
 H         1.865946         1.746401        -1.214018
 H         2.553808         0.295091        -1.943484
 H         3.608446         1.178523         2.101814
