19
Iteration:  2359charge 0 multiplicity 1
 C        -0.124862        -0.205364        -0.331700
 C         1.460146        -0.179693        -0.215347
 C         2.309735        -1.442978         0.180826
 C         3.580531        -0.585655         1.026206
 O         4.496374        -0.204450        -0.012822
 C         3.672735         0.997164        -0.255097
 C         2.489877         0.585780        -1.230983
 C         2.984931         0.866977         1.142274
 O         1.563449         0.770747         0.996404
 H        -0.459422        -0.532788         0.700120
 H        -0.197268         0.851346        -0.563737
 H        -0.506156        -0.761733        -1.171409
 H         1.870686        -2.126078         0.876067
 H         2.805298        -2.022769        -0.704851
 H         4.098619        -1.070415         1.839235
 H         4.236054         1.801684        -0.752077
 H         1.952027         1.566725        -1.502184
 H         2.850227         0.118588        -2.168136
 H         3.230454         1.452309         2.079512
