19
Iteration:  1355charge 0 multiplicity 1
 C        -0.021786        -0.253979        -0.367026
 C         1.471080        -0.057702        -0.142464
 C         2.268501        -1.363944         0.244515
 C         3.511132        -0.650128         0.910999
 O         4.558914        -0.089283         0.001472
 C         3.626904         1.042193        -0.300955
 C         2.426843         0.577985        -1.194642
 C         3.001629         0.756593         1.137485
 O         1.620732         0.703350         1.022914
 H        -0.535876        -0.904687         0.340005
 H        -0.593771         0.601831        -0.638216
 H        -0.190728        -0.892110        -1.207496
 H         1.702154        -1.925282         0.906208
 H         2.521658        -2.025655        -0.672921
 H         3.972112        -1.201551         1.856727
 H         4.047539         1.975656        -0.432519
 H         1.862226         1.346287        -1.746254
 H         2.840082        -0.125670        -1.969073
 H         3.411150         1.493610         1.885219
