19
Iteration:  4167charge 0 multiplicity 1
 C         0.268719        -0.406892        -0.668709
 C         1.513281         0.022269        -0.135682
 C         2.240628        -1.295308         0.395480
 C         3.489273        -0.760988         0.908700
 O         4.329575        -0.349287        -0.205161
 C         3.659433         0.918512        -0.237420
 C         2.391175         0.851097        -1.032739
 C         3.019461         0.776990         1.194578
 O         1.605761         0.891305         1.105302
 H        -0.131546        -1.342222        -0.272557
 H        -0.429795         0.429945        -0.530122
 H         0.348264        -0.574614        -1.684705
 H         1.463897        -1.389281         1.147161
 H         2.209175        -2.173153        -0.274428
 H         4.094846        -1.332976         1.661792
 H         4.173164         1.908577        -0.511730
 H         1.826240         1.850469        -1.087736
 H         2.504649         0.197650        -1.917527
 H         3.308641         1.260302         2.139620
