19
Iteration:  2326
 C         0.131238        -0.368179        -0.563465
 C         1.502238        -0.004428        -0.097476
 C         2.213321        -1.381819         0.433947
 C         3.561798        -0.686009         0.928555
 O         4.463098        -0.201650        -0.139378
 C         3.606754         0.975868        -0.299628
 C         2.367529         0.672265        -1.200932
 C         3.036069         0.747586         1.181181
 O         1.597444         0.866182         1.114797
 H        -0.619934        -0.925116         0.062095
 H        -0.386510         0.553824        -0.907831
 H         0.312236        -1.024633        -1.423257
 H         1.535963        -1.674894         1.214030
 H         2.196658        -2.147975        -0.451399
 H         4.028189        -1.180331         1.760113
 H         4.185952         1.865338        -0.654297
 H         1.850269         1.672656        -1.448559
 H         2.634445         0.117691        -2.095462
 H         3.585418         1.425568         1.920198
