19
Iteration:  1082charge 0 multiplicity 1
 C         0.023699        -0.340653        -0.551991
 C         1.509940        -0.148892        -0.140116
 C         2.290932        -1.373625         0.354294
 C         3.571756        -0.698699         0.900310
 O         4.440315        -0.163877        -0.118612
 C         3.653641         1.008298        -0.248125
 C         2.403386         0.685236        -1.111615
 C         2.957844         0.850577         1.142208
 O         1.590554         0.818266         1.069818
 H        -0.315440        -0.891786         0.372782
 H        -0.561642         0.584386        -0.472144
 H        -0.231601        -0.851896        -1.492237
 H         1.851859        -1.918591         1.143129
 H         2.539388        -2.156647        -0.503521
 H         4.240954        -1.128674         1.629255
 H         4.151232         1.915339        -0.524741
 H         1.946259         1.639868        -1.448223
 H         2.844332         0.097145        -1.949340
 H         3.420711         1.232733         2.048476
