19
Iteration:  3160charge 0 multiplicity 1
 C         0.213844        -0.334919        -0.719094
 C         1.529348         0.022509        -0.125467
 C         2.274270        -1.360170         0.444023
 C         3.604248        -0.652955         1.074258
 O         4.233287        -0.426084        -0.264141
 C         3.615888         0.939093        -0.262936
 C         2.353556         0.795732        -1.065028
 C         3.042354         0.879074         1.239160
 O         1.600919         0.793146         1.047858
 H        -0.397704        -0.778881         0.119916
 H        -0.460719         0.522617        -1.113109
 H         0.424827        -0.878029        -1.609469
 H         1.639954        -1.881839         1.141422
 H         2.740258        -2.156512        -0.209644
 H         4.234058        -0.968206         1.975306
 H         4.357205         1.683052        -0.504017
 H         1.869779         1.899839        -1.253429
 H         2.667015         0.424925        -2.053411
 H         3.284010         1.568008         2.109213
