19
Iteration:  1915charge 0 multiplicity 1
 C         0.056717        -0.201778        -0.340312
 C         1.504439        -0.205862        -0.256125
 C         2.346929        -1.322059         0.268499
 C         3.493960        -0.645548         0.944926
 O         4.538718        -0.097850         0.025722
 C         3.596286         0.949853        -0.236976
 C         2.406560         0.649484        -1.259669
 C         2.929245         0.742545         1.080827
 O         1.566319         0.722937         1.035595
 H        -0.208672        -0.547330         0.704102
 H        -0.159802         0.875442        -0.470207
 H        -0.481857        -0.741267        -1.130804
 H         1.880559        -2.071256         0.920349
 H         2.823194        -1.929579        -0.535580
 H         3.840573        -1.174527         1.825915
 H         4.050011         1.804312        -0.479263
 H         1.903767         1.533272        -1.716281
 H         2.656469        -0.065851        -2.085626
 H         3.322767         1.489778         1.736502
