19
Iteration:   795
 C        -0.000616        -0.313386        -0.519112
 C         1.513063        -0.087683        -0.123817
 C         2.335896        -1.308707         0.364224
 C         3.588159        -0.638238         0.986118
 O         4.406333        -0.202452        -0.122608
 C         3.624433         1.009897        -0.301554
 C         2.383493         0.679966        -1.179794
 C         3.028029         0.842567         1.133730
 O         1.580311         0.671668         1.066704
 H        -0.543811        -0.891572         0.256784
 H        -0.496143         0.736210        -0.610990
 H        -0.148918        -0.800196        -1.536071
 H         1.737679        -1.879285         1.172594
 H         2.625323        -2.034425        -0.350337
 H         4.217673        -1.289577         1.684391
 H         4.265203         1.937752        -0.449936
 H         1.844780         1.637748        -1.361473
 H         2.911833         0.241750        -2.040240
 H         3.444456         1.393695         1.974868
