19
Iteration:   330charge 0 multiplicity 1
 C        -0.074844        -0.156930        -0.434178
 C         1.385644        -0.169147        -0.054555
 C         2.368050        -1.356857         0.161061
 C         3.604957        -0.730244         0.883597
 O         4.570986        -0.069067         0.074506
 C         3.602011         0.962292        -0.280457
 C         2.398012         0.551514        -1.210353
 C         3.011755         0.759127         1.104656
 O         1.562642         0.786624         1.054747
 H        -0.882364        -0.514906         0.232136
 H        -0.341267         0.939107        -0.517198
 H        -0.434562        -0.698648        -1.338197
 H         2.174101        -2.166651         0.867549
 H         2.765288        -1.883765        -0.823390
 H         4.140403        -1.227980         1.661100
 H         4.024761         1.863228        -0.575823
 H         1.967109         1.456231        -1.520060
 H         2.799904        -0.045732        -1.918212
 H         3.419176         1.257884         1.996963
