19
Iteration:  2894charge 0 multiplicity 1
 C         0.153719        -0.261243        -0.712842
 C         1.554481        -0.082142        -0.216778
 C         2.274772        -1.379724         0.523466
 C         3.547159        -0.663389         1.038162
 O         4.305355        -0.363085        -0.146665
 C         3.602005         0.977534        -0.343674
 C         2.352018         0.869497        -1.076949
 C         3.059220         0.843465         1.152480
 O         1.626768         0.715609         1.095288
 H        -0.279791        -0.759423         0.206634
 H        -0.271587         0.686475        -1.006708
 H         0.186797        -0.953068        -1.614799
 H         1.553602        -1.463819         1.345503
 H         2.496000        -2.262046        -0.015443
 H         4.020925        -1.232918         1.809364
 H         4.247608         1.744826        -0.687830
 H         1.836878         1.840459        -1.240798
 H         2.620008         0.420424        -2.161331
 H         3.468002         1.458518         1.984645
