19
Iteration:  2592
 C         0.156390        -0.502397        -0.702876
 C         1.428379         0.003388        -0.012169
 C         2.108621        -1.303313         0.498039
 C         3.505223        -0.723032         0.848216
 O         4.381017        -0.311845        -0.251214
 C         3.773384         1.032091        -0.273413
 C         2.397351         0.794128        -1.045374
 C         3.123515         0.815834         1.119373
 O         1.583541         0.892881         1.172456
 H        -0.350891        -1.291887        -0.205866
 H        -0.559096         0.197464        -1.118818
 H         0.421900        -0.918408        -1.708985
 H         1.703920        -1.617055         1.499019
 H         2.273994        -2.138915        -0.101723
 H         3.984144        -1.360229         1.707415
 H         4.607559         1.668949        -0.542648
 H         1.927365         1.795101        -1.196533
 H         2.560347         0.193287        -2.053772
 H         3.396247         1.555754         1.966311
