19
Iteration:  2647
 C        -0.016207        -0.114894        -0.386478
 C         1.502515        -0.116139        -0.136324
 C         2.312251        -1.354126         0.254487
 C         3.469424        -0.617917         0.926027
 O         4.526959        -0.176153        -0.069936
 C         3.627799         1.001835        -0.288755
 C         2.504306         0.531693        -1.145567
 C         2.958159         0.775977         1.160326
 O         1.577808         0.696269         0.999676
 H        -0.538678        -0.445503         0.451483
 H        -0.388627         0.911379        -0.436567
 H        -0.354321        -0.638707        -1.315616
 H         1.857439        -2.147531         0.893822
 H         2.692548        -1.897886        -0.571350
 H         3.818913        -1.040779         1.946913
 H         4.287976         1.740461        -0.741603
 H         2.038499         1.449658        -1.631868
 H         2.850391        -0.103174        -2.033410
 H         3.079873         1.345537         2.120615
