19
Iteration:  3182
 C         0.148351        -0.399801        -0.673811
 C         1.526956        -0.114181        -0.100850
 C         2.224215        -1.301903         0.458118
 C         3.507985        -0.702540         0.942342
 O         4.355255        -0.283516        -0.146626
 C         3.677846         0.951147        -0.272875
 C         2.415097         0.814435        -1.088335
 C         3.030936         0.775902         1.113716
 O         1.618039         0.876897         1.096200
 H        -0.660312        -0.517395         0.125266
 H        -0.241593         0.419612        -1.353956
 H         0.200998        -1.191922        -1.388454
 H         1.687255        -1.760744         1.283651
 H         2.364023        -2.068415        -0.365074
 H         3.916518        -1.286495         1.807620
 H         4.300800         1.805934        -0.498077
 H         1.789819         1.845524        -1.098611
 H         2.613255         0.517293        -2.123702
 H         3.397011         1.240532         2.043404
