19
Iteration:  4345charge 0 multiplicity 1
 C         0.089171        -0.203532        -0.597595
 C         1.540879        -0.080464        -0.129903
 C         2.219709        -1.380722         0.355116
 C         3.489442        -0.705320         0.939603
 O         4.403889        -0.245896        -0.106965
 C         3.629752         1.011994        -0.250283
 C         2.412636         0.727436        -1.138747
 C         3.071203         0.734067         1.201684
 O         1.630343         0.781628         1.052942
 H        -0.527543        -0.823760         0.053179
 H        -0.362828         0.755579        -0.661424
 H         0.163410        -0.565877        -1.629380
 H         1.545512        -1.738813         1.150152
 H         2.327583        -2.192859        -0.357267
 H         3.931258        -1.315382         1.707091
 H         4.367819         1.787465        -0.397309
 H         1.872655         1.679742        -1.435997
 H         2.631399         0.101851        -2.085702
 H         3.387742         1.273019         2.127114
