19
Iteration:  3948charge 0 multiplicity 1
 C        -0.016720        -0.163121        -0.403059
 C         1.483834        -0.092726        -0.278259
 C         2.326427        -1.300165         0.224173
 C         3.486691        -0.732353         1.012412
 O         4.586005        -0.230496         0.075584
 C         3.598270         0.925433        -0.262613
 C         2.413309         0.653240        -1.246801
 C         2.969149         0.767462         1.159226
 O         1.584852         0.758000         1.012478
 H        -0.509980        -0.454827         0.526001
 H        -0.379935         0.956795        -0.488589
 H        -0.405111        -0.661957        -1.341762
 H         1.770687        -2.054371         0.728584
 H         2.818406        -1.861466        -0.563028
 H         3.927588        -1.250625         1.877514
 H         4.195549         1.781248        -0.700111
 H         2.067465         1.648637        -1.646151
 H         2.739913         0.097805        -2.067587
 H         3.229616         1.434749         1.973084
