19
Iteration:  3908
 C         0.124895        -0.355324        -0.675542
 C         1.517470        -0.011747        -0.143816
 C         2.204474        -1.283086         0.436591
 C         3.530610        -0.696023         0.952161
 O         4.402368        -0.348139        -0.227060
 C         3.670439         1.017804        -0.217264
 C         2.467428         0.744206        -1.081934
 C         3.012514         0.766356         1.221030
 O         1.541779         0.841531         1.080313
 H        -0.469639        -0.395318         0.289235
 H        -0.156747         0.480717        -1.340241
 H         0.180769        -1.324374        -1.105379
 H         1.470357        -1.555908         1.248672
 H         2.411496        -1.996845        -0.404128
 H         4.061920        -1.508228         1.483327
 H         4.236354         1.932938        -0.414736
 H         1.922668         1.672967        -1.256614
 H         2.835631         0.129569        -1.998358
 H         3.379985         1.259383         2.113647
