19
Iteration:  3869charge 0 multiplicity 1
 C         0.167403        -0.276397        -0.769351
 C         1.518277        -0.107051        -0.069478
 C         2.175847        -1.334689         0.440646
 C         3.509632        -0.697865         1.009172
 O         4.400219        -0.359347        -0.153107
 C         3.661391         1.006912        -0.317306
 C         2.371381         0.765063        -1.058192
 C         3.105497         0.804681         1.160356
 O         1.589466         0.850911         1.112910
 H        -0.517571        -0.769497        -0.053699
 H        -0.373877         0.526874        -1.299726
 H         0.114173        -1.105116        -1.574073
 H         1.576670        -1.896928         1.143446
 H         2.555910        -2.014075        -0.317240
 H         4.050510        -1.199772         1.858639
 H         4.338927         1.843254        -0.488275
 H         1.777119         1.680656        -1.041883
 H         2.351190         0.417379        -2.105737
 H         3.496182         1.497735         1.939219
