19
Iteration:   317charge 0 multiplicity 1
 C        -0.033879        -0.139124        -0.398871
 C         1.493414        -0.173824        -0.193737
 C         2.343727        -1.405179         0.227701
 C         3.562357        -0.690040         0.872657
 O         4.597496        -0.051138         0.053422
 C         3.585507         0.984170        -0.272590
 C         2.370881         0.553501        -1.162375
 C         2.928510         0.756054         1.120840
 O         1.595748         0.743625         1.054652
 H        -0.435453        -0.524694         0.558906
 H        -0.237561         0.919386        -0.529676
 H        -0.253063        -0.595974        -1.346097
 H         1.746619        -2.043666         0.828282
 H         2.510546        -1.894277        -0.728714
 H         3.910460        -1.325078         1.561982
 H         4.166921         1.897691        -0.609627
 H         1.917946         1.397688        -1.663426
 H         2.553278        -0.090008        -1.951412
 H         3.343601         1.328186         1.996576
