19
Iteration:  3928
 C        -0.007499        -0.219137        -0.499234
 C         1.524908        -0.115041        -0.157761
 C         2.246757        -1.405154         0.305169
 C         3.485507        -0.697343         0.950835
 O         4.419003        -0.214127        -0.035574
 C         3.681472         0.969633        -0.196046
 C         2.496301         0.763317        -1.171397
 C         3.014929         0.754126         1.147131
 O         1.621050         0.782237         0.931000
 H        -0.424607        -0.396877         0.558242
 H        -0.558194         0.725917        -0.955905
 H        -0.068153        -1.127528        -1.122858
 H         1.666642        -1.798768         1.172063
 H         2.409495        -2.205062        -0.440184
 H         4.069316        -1.137796         1.779764
 H         4.426635         1.798260        -0.333171
 H         1.920258         1.705442        -1.339622
 H         2.664591         0.179281        -2.051396
 H         3.262745         1.336402         2.019975
