19
Iteration:  4097
 C        -0.049706        -0.066791        -0.367909
 C         1.527623        -0.121454        -0.252871
 C         2.280686        -1.466730         0.221866
 C         3.542103        -0.737031         0.953238
 O         4.473353        -0.110294        -0.003444
 C         3.609461         1.053557        -0.138338
 C         2.459477         0.632099        -1.254270
 C         2.960811         0.725016         1.221862
 O         1.636289         0.709175         0.898849
 H        -0.482901         0.035141         0.599670
 H        -0.230647         0.809217        -0.946562
 H        -0.534121        -0.925052        -0.923460
 H         1.574990        -1.917170         0.966412
 H         2.734901        -2.206582        -0.444728
 H         3.982607        -1.386517         1.709895
 H         4.191149         1.957312        -0.314913
 H         2.082009         1.467815        -1.730307
 H         2.940058        -0.185853        -1.746322
 H         3.339717         1.320669         2.059405
