19
Iteration:   542charge 0 multiplicity 1
 C         0.197597        -0.404760        -0.690148
 C         1.616866        -0.058562        -0.130151
 C         2.235732        -1.314396         0.533338
 C         3.527892        -0.733156         1.026195
 O         4.232050        -0.262549        -0.285308
 C         3.625148         1.086097        -0.317199
 C         2.380639         0.800790        -1.060756
 C         3.047667         0.798748         1.174727
 O         1.641504         0.741561         1.108221
 H        -0.488910        -0.926558         0.080040
 H        -0.297115         0.498042        -1.090505
 H         0.435763        -1.143009        -1.484561
 H         1.450619        -1.559952         1.445202
 H         2.401169        -2.149728        -0.090849
 H         4.363461        -1.094182         1.735585
 H         4.281790         1.861361        -0.810975
 H         1.757330         1.658466        -1.037233
 H         2.487153         0.364470        -2.083298
 H         3.366279         1.502720         1.900004
