19
Iteration:  3358charge 0 multiplicity 1
 C        -0.003311        -0.211824        -0.540297
 C         1.522279        -0.109224        -0.180905
 C         2.294402        -1.395915         0.270160
 C         3.499642        -0.699558         1.017124
 O         4.546046        -0.165115         0.007228
 C         3.617254         0.960016        -0.246207
 C         2.390035         0.662233        -1.181291
 C         3.022304         0.750622         1.127442
 O         1.589607         0.820566         1.013876
 H        -0.428783        -0.310007         0.523894
 H        -0.239292         0.786514        -0.839743
 H        -0.402990        -1.125865        -1.068625
 H         1.562619        -2.006414         0.799629
 H         2.520850        -2.198422        -0.447542
 H         4.095889        -1.278693         1.730965
 H         4.142966         1.903822        -0.462112
 H         1.824896         1.642088        -1.559949
 H         2.588321         0.019448        -2.001705
 H         3.375662         1.381101         1.959759
