19
Iteration:  3483charge 0 multiplicity 1
 C         0.138555        -0.321578        -0.590268
 C         1.497713        -0.059500        -0.142788
 C         2.213423        -1.384208         0.448728
 C         3.551111        -0.746629         0.878828
 O         4.475323        -0.276457        -0.100963
 C         3.572247         0.970929        -0.241063
 C         2.432827         0.723429        -1.199250
 C         2.983145         0.821080         1.185990
 O         1.563372         0.887398         1.046325
 H        -0.218694        -1.036373         0.117337
 H        -0.297138         0.705427        -0.454034
 H         0.205850        -0.612915        -1.628919
 H         1.738610        -1.702667         1.357871
 H         2.272366        -2.113913        -0.340534
 H         4.082506        -1.214637         1.733964
 H         4.266108         1.816278        -0.373359
 H         1.914639         1.644359        -1.339853
 H         2.753922         0.127544        -2.198924
 H         3.307904         1.344868         2.079728
