19
Iteration:   881
 C         0.024146        -0.251331        -0.424344
 C         1.502733        -0.113790        -0.167553
 C         2.335837        -1.432053         0.281282
 C         3.552796        -0.632436         0.952156
 O         4.506455        -0.138075        -0.055356
 C         3.596887         0.992723        -0.284620
 C         2.350786         0.670082        -1.140434
 C         2.964700         0.803157         1.174789
 O         1.637825         0.739850         0.973308
 H        -0.534984        -0.528730         0.456197
 H        -0.329415         0.755175        -0.634880
 H        -0.210709        -1.007465        -1.161476
 H         1.683496        -2.002404         0.989635
 H         2.600268        -2.060716        -0.499153
 H         4.178635        -1.357246         1.584462
 H         4.156217         1.833561        -0.414322
 H         1.814875         1.589621        -1.522661
 H         2.587054         0.102241        -2.067356
 H         3.133154         1.388246         2.049017
