19
Iteration:  1090charge 0 multiplicity 1
 C         0.013716        -0.389492        -0.584034
 C         1.472857        -0.068121        -0.114969
 C         2.323102        -1.374459         0.393698
 C         3.550592        -0.713689         0.880203
 O         4.398423        -0.164936        -0.142168
 C         3.619766         1.014869        -0.270059
 C         2.416381         0.712941        -1.097726
 C         3.031568         0.827591         1.165159
 O         1.627055         0.804006         1.088500
 H        -0.488045        -1.069631         0.074273
 H        -0.661602         0.484061        -0.666606
 H         0.143249        -0.942684        -1.511009
 H         1.668292        -1.706720         1.251847
 H         2.618899        -2.148204        -0.394993
 H         4.173799        -1.186777         1.786099
 H         4.336082         1.743950        -0.567499
 H         1.941294         1.665776        -1.494496
 H         2.680308         0.217283        -2.037778
 H         3.359348         1.381538         2.115577
