19
Iteration:  2923charge 0 multiplicity 1
 C        -0.027767        -0.228178        -0.512646
 C         1.450343        -0.077142        -0.159741
 C         2.319905        -1.368081         0.309543
 C         3.521859        -0.706370         0.969246
 O         4.482514        -0.219505        -0.069035
 C         3.703731         0.915894        -0.261787
 C         2.430009         0.625418        -1.111744
 C         2.953330         0.805541         1.173137
 O         1.601873         0.877054         0.982160
 H        -0.427521        -0.947525         0.241512
 H        -0.513332         0.738429        -0.397021
 H        -0.092188        -0.550097        -1.516635
 H         1.715100        -1.916045         1.042646
 H         2.593860        -2.093700        -0.522210
 H         3.975784        -1.349986         1.747212
 H         4.287203         1.873871        -0.533087
 H         2.057205         1.600472        -1.548515
 H         2.727429        -0.055143        -1.888509
 H         3.425443         1.352128         2.055133
