19
Iteration:  4363charge 0 multiplicity 1
 C        -0.082622        -0.103252        -0.496844
 C         1.498093        -0.107717        -0.267893
 C         2.259523        -1.334325         0.378292
 C         3.547078        -0.740500         0.984244
 O         4.487576        -0.229146        -0.078954
 C         3.647325         0.948795        -0.156436
 C         2.503661         0.694605        -1.151014
 C         2.950256         0.749405         1.137749
 O         1.622589         0.720169         0.940989
 H        -0.392578        -0.947045         0.200828
 H        -0.477071         0.883683        -0.151109
 H        -0.581235        -0.219734        -1.437462
 H         1.788600        -1.945209         1.175870
 H         2.679924        -2.107605        -0.312376
 H         4.219081        -1.249332         1.686104
 H         4.184157         1.917553        -0.504618
 H         2.043533         1.602588        -1.371739
 H         2.961006         0.333921        -2.021134
 H         3.249151         1.359492         1.963903
