19
Iteration:  3221
 C        -0.023789        -0.173998        -0.433396
 C         1.423781        -0.089477        -0.152601
 C         2.361308        -1.352963         0.242364
 C         3.541640        -0.707075         0.905262
 O         4.499152        -0.178162         0.002380
 C         3.630612         0.994173        -0.225533
 C         2.542204         0.571782        -1.210440
 C         2.920879         0.748708         1.152382
 O         1.538264         0.800180         1.015451
 H        -0.551720        -0.231169         0.477458
 H        -0.226094         0.832804        -0.870713
 H        -0.434943        -1.081035        -0.952507
 H         1.802904        -1.973055         1.033230
 H         2.569466        -1.843393        -0.709237
 H         4.141871        -1.169028         1.699217
 H         4.299950         1.853802        -0.495719
 H         2.123715         1.375773        -1.666751
 H         2.949482        -0.155587        -2.030243
 H         3.280995         1.320490         2.058648
