19
Iteration:  4294
 C         0.092079        -0.346605        -0.637543
 C         1.502270        -0.041319        -0.232774
 C         2.255381        -1.359214         0.427628
 C         3.502564        -0.752724         0.895638
 O         4.372560        -0.338174        -0.125680
 C         3.671678         1.028970        -0.216844
 C         2.379834         0.888841        -1.068177
 C         3.037015         0.751842         1.187719
 O         1.678493         0.818595         1.090961
 H        -0.456620        -0.254242         0.290003
 H        -0.168287         0.310152        -1.580276
 H        -0.013581        -1.364164        -1.187205
 H         1.523987        -1.839015         1.088418
 H         2.270251        -2.138801        -0.346828
 H         3.917804        -1.363878         1.744219
 H         4.362942         1.857101        -0.460059
 H         1.937054         1.904901        -1.131549
 H         2.570707         0.592425        -2.073525
 H         3.268397         1.344035         2.109534
