19
Iteration:  3097charge 0 multiplicity 1
 C        -0.092983        -0.141135        -0.405441
 C         1.461916        -0.100608        -0.185152
 C         2.352281        -1.334083         0.207854
 C         3.530417        -0.688811         0.972090
 O         4.542331        -0.182060         0.095944
 C         3.621798         0.925977        -0.236262
 C         2.452290         0.540896        -1.312198
 C         3.009360         0.824038         1.150814
 O         1.579488         0.793434         1.007398
 H        -0.638346        -0.873489         0.286092
 H        -0.326595         0.869391        -0.177242
 H        -0.348881        -0.423722        -1.416757
 H         1.791219        -1.992414         0.886974
 H         2.619426        -1.996327        -0.664042
 H         3.963592        -1.425615         1.674057
 H         4.162073         1.890712        -0.594456
 H         2.113728         1.388482        -1.915730
 H         2.815024        -0.199331        -1.897450
 H         3.198153         1.442312         2.033352
