19
Iteration:   242
 C         0.153849        -0.467999        -0.776757
 C         1.439782         0.003220        -0.053558
 C         2.247209        -1.297587         0.410208
 C         3.541865        -0.696404         0.941719
 O         4.400284        -0.315276        -0.174167
 C         3.641411         1.014067        -0.357737
 C         2.289750         0.838976        -1.108968
 C         3.102117         0.811088         1.180366
 O         1.633784         0.816312         1.257624
 H        -0.430534        -1.000119         0.030099
 H        -0.437588         0.391147        -1.141707
 H         0.564326        -1.117490        -1.564905
 H         1.660179        -1.706558         1.269846
 H         2.453684        -2.210140        -0.330673
 H         4.036484        -1.349533         1.629548
 H         4.361676         1.733217        -0.585964
 H         1.729558         1.746677        -1.276489
 H         2.274949         0.327568        -1.996704
 H         3.565480         1.482641         1.978204
