19
Iteration:  2159
 C         0.238660        -0.483134        -0.677648
 C         1.514834        -0.057589        -0.039782
 C         2.192659        -1.317630         0.482882
 C         3.465025        -0.694949         1.008171
 O         4.374601        -0.282262        -0.257023
 C         3.634096         1.044907        -0.310415
 C         2.304304         0.823403        -1.102094
 C         3.122575         0.805235         1.122200
 O         1.617877         0.831279         1.136213
 H        -0.496636        -1.037385        -0.076046
 H        -0.358445         0.424898        -0.999076
 H         0.655765        -1.080764        -1.550063
 H         1.572024        -1.610099         1.431124
 H         2.288212        -2.060972        -0.293439
 H         4.006853        -1.430081         1.606489
 H         4.360782         1.882190        -0.476505
 H         1.724690         1.812186        -1.248476
 H         2.581499         0.253421        -2.041249
 H         3.434349         1.396683         1.945249
