19
Iteration:  1899
 C        -0.023393        -0.298346        -0.454606
 C         1.463607        -0.065158        -0.134752
 C         2.317724        -1.361139         0.277175
 C         3.561669        -0.630053         0.975412
 O         4.519341        -0.174597        -0.055464
 C         3.628781         1.013959        -0.293317
 C         2.430917         0.624768        -1.164435
 C         2.999747         0.823807         1.160726
 O         1.575769         0.721970         1.013727
 H        -0.433499        -0.763109         0.436416
 H        -0.550450         0.630589        -0.729243
 H        -0.087453        -0.919761        -1.366582
 H         1.641286        -1.771144         1.042929
 H         2.606410        -2.071221        -0.620612
 H         4.030774        -1.269716         1.764417
 H         4.229864         1.945987        -0.721193
 H         1.925938         1.594615        -1.464339
 H         2.678523        -0.007784        -2.022823
 H         3.207955         1.355535         2.119369
