19
Iteration:  2668
 C        -0.071748        -0.136005        -0.430812
 C         1.493924        -0.095209        -0.181320
 C         2.261779        -1.346055         0.228632
 C         3.656130        -0.791363         0.886726
 O         4.577660        -0.051702         0.121033
 C         3.585621         0.923317        -0.271034
 C         2.369682         0.556009        -1.252357
 C         2.990667         0.731222         1.116590
 O         1.601224         0.800869         1.036966
 H        -0.538920        -0.250541         0.507663
 H        -0.461534         0.823285        -0.711924
 H        -0.594098        -0.771286        -1.168556
 H         1.656827        -1.910680         1.012577
 H         2.454508        -2.076560        -0.502276
 H         4.269474        -1.341236         1.664035
 H         4.082287         1.864797        -0.346128
 H         1.908428         1.333134        -1.909273
 H         2.692353        -0.301106        -1.978084
 H         3.558418         1.319782         1.914532
