19
Iteration:  4755charge 0 multiplicity 1
 C         0.064701        -0.288698        -0.652644
 C         1.467082        -0.013961        -0.098095
 C         2.200656        -1.318164         0.339447
 C         3.431859        -0.672383         0.929121
 O         4.424107        -0.334501        -0.033371
 C         3.689796         1.001346        -0.324633
 C         2.465403         0.698856        -1.108357
 C         3.104472         0.763091         1.166022
 O         1.589309         0.849559         1.115587
 H         0.001430        -0.078928        -1.780698
 H        -0.192879        -1.302402        -0.513851
 H        -0.847108         0.156212        -0.201548
 H         1.661600        -1.979211         0.999245
 H         2.488336        -1.897981        -0.540708
 H         3.894703        -1.116755         1.791199
 H         4.469060         1.757596        -0.520196
 H         2.177208         1.614741        -1.577335
 H         2.741951         0.046223        -1.903523
 H         3.616612         1.295698         2.092629
