19
Iteration:  3346
 C         0.014289        -0.245114        -0.543214
 C         1.475256        -0.110930        -0.199796
 C         2.303785        -1.405712         0.382389
 C         3.496289        -0.678234         0.968819
 O         4.476366        -0.231496        -0.070325
 C         3.686194         0.946054        -0.287225
 C         2.423554         0.729425        -1.133704
 C         2.982569         0.817054         1.170270
 O         1.606594         0.772564         1.016553
 H        -0.724161        -0.489736         0.302669
 H        -0.396617         0.616357        -1.070716
 H        -0.056423        -0.968563        -1.373045
 H         1.804064        -1.860237         1.243897
 H         2.710501        -2.014235        -0.461935
 H         3.922015        -1.128119         1.894494
 H         4.308504         1.780707        -0.601308
 H         1.933962         1.790773        -1.128228
 H         2.569773         0.433381        -2.131604
 H         3.336236         1.322650         2.058394
