19
Iteration:  2747
 C         0.142237        -0.414097        -0.724422
 C         1.548655        -0.089902        -0.100465
 C         2.173118        -1.287588         0.498568
 C         3.538597        -0.753152         0.942430
 O         4.368844        -0.332501        -0.197829
 C         3.654778         1.016130        -0.304078
 C         2.385025         0.810924        -1.020447
 C         3.052861         0.804523         1.169099
 O         1.612027         0.874919         1.073060
 H        -0.331888        -1.111157        -0.083664
 H        -0.477652         0.525420        -0.755219
 H         0.322650        -0.975040        -1.635089
 H         1.680205        -1.510515         1.443943
 H         2.180114        -2.139727        -0.231659
 H         4.201662        -1.333530         1.657179
 H         4.238934         1.936567        -0.609641
 H         1.802326         1.843714        -1.142588
 H         2.640246         0.472877        -2.002468
 H         3.421259         1.344280         1.989711
