19
Iteration:  2364charge 0 multiplicity 1
 C        -0.081854        -0.187868        -0.300953
 C         1.453979        -0.235135        -0.209868
 C         2.295996        -1.472597         0.168375
 C         3.549474        -0.600570         1.039084
 O         4.524744        -0.169425        -0.000714
 C         3.661075         0.969517        -0.279736
 C         2.488567         0.624753        -1.239431
 C         2.974722         0.871613         1.106803
 O         1.563072         0.785023         0.984381
 H        -0.497349        -0.359868         0.667703
 H        -0.362001         0.893312        -0.427470
 H        -0.535165        -0.733405        -1.164536
 H         1.892411        -2.296797         0.841096
 H         2.809928        -2.028910        -0.527994
 H         4.171133        -1.064093         1.871228
 H         4.249950         1.851726        -0.588774
 H         2.112969         1.574561        -1.534690
 H         2.806661         0.147234        -2.183202
 H         3.158611         1.303193         2.058027
