19
Iteration:  1772
 C        -0.139090        -0.216845        -0.346528
 C         1.434105        -0.165332        -0.213340
 C         2.334056        -1.299703         0.195129
 C         3.585016        -0.626096         0.920982
 O         4.547382        -0.093126         0.022897
 C         3.680692         0.988693        -0.220265
 C         2.407418         0.529957        -1.172554
 C         2.984703         0.802161         1.164763
 O         1.587211         0.691482         0.945023
 H        -0.658825        -0.490141         0.582182
 H        -0.327878         0.883868        -0.480729
 H        -0.418534        -0.946279        -1.135387
 H         1.996370        -2.022084         0.930461
 H         2.697924        -1.811633        -0.688850
 H         4.067535        -1.217717         1.730369
 H         4.172944         1.875940        -0.529187
 H         2.108273         1.368876        -1.751520
 H         2.802662        -0.109784        -1.931991
 H         3.280253         1.515739         2.012723
