19
Iteration:  4285
 C         0.170499        -0.261349        -0.570426
 C         1.581040        -0.061242        -0.211900
 C         2.214116        -1.369587         0.360147
 C         3.475482        -0.768589         0.907042
 O         4.400114        -0.283080        -0.129547
 C         3.647118         0.994199        -0.203062
 C         2.425836         0.848332        -1.119082
 C         3.006855         0.747213         1.179970
 O         1.562206         0.787962         1.042230
 H        -0.417019        -0.150515         0.361642
 H        -0.368073         0.468888        -1.297966
 H        -0.059199        -1.308528        -0.785926
 H         1.676453        -1.662518         1.304025
 H         2.487021        -2.231911        -0.310084
 H         4.062378        -1.407080         1.625354
 H         4.423001         1.833759        -0.335278
 H         1.940312         1.802110        -1.064574
 H         2.523755         0.522699        -2.105633
 H         3.397735         1.279688         2.050522
