19
Iteration:  4187
 C         0.120374        -0.355971        -0.626733
 C         1.543647        -0.052042        -0.154375
 C         2.216315        -1.332809         0.503668
 C         3.481147        -0.676456         0.954491
 O         4.221748        -0.346075        -0.238519
 C         3.668618         1.036081        -0.191663
 C         2.517580         0.866848        -1.148436
 C         3.089512         0.762044         1.240420
 O         1.633582         0.776995         1.022807
 H        -0.267416        -1.266754        -0.254612
 H        -0.661559         0.408613        -0.367262
 H         0.122654        -0.507021        -1.691364
 H         1.497238        -1.869251         1.199587
 H         2.550489        -1.954930        -0.361678
 H         4.177833        -1.328109         1.530566
 H         4.439164         1.901004        -0.150895
 H         1.900064         1.741476        -1.346606
 H         2.915639         0.411271        -2.011788
 H         3.305335         1.369644         2.137655
