19
Iteration:  3806
 C        -0.050719        -0.155412        -0.387061
 C         1.462272        -0.085966        -0.145581
 C         2.301171        -1.319090         0.169770
 C         3.505563        -0.714318         0.899127
 O         4.579491        -0.206326         0.088847
 C         3.656786         0.963312        -0.294213
 C         2.532841         0.536090        -1.163796
 C         2.957265         0.761076         1.186681
 O         1.524500         0.825983         0.946178
 H        -0.531601        -0.779144         0.318276
 H        -0.483652         0.844840        -0.050276
 H        -0.018528        -0.411853        -1.476929
 H         1.831189        -2.012494         0.877333
 H         2.526768        -1.980670        -0.664142
 H         3.701932        -1.409679         1.702447
 H         4.249293         1.894110        -0.530722
 H         2.045163         1.404929        -1.694840
 H         2.716333        -0.071965        -1.959904
 H         3.236823         1.554050         1.905433
