19
Iteration:  2465
 C         0.067499        -0.357994        -0.614423
 C         1.534212        -0.066470        -0.132014
 C         2.253516        -1.349009         0.493120
 C         3.579694        -0.560620         0.977554
 O         4.323691        -0.382579        -0.186526
 C         3.675330         0.982111        -0.290748
 C         2.394253         0.861439        -1.087233
 C         3.054472         0.797456         1.128881
 O         1.597387         0.748462         1.038291
 H        -0.599272        -0.951687        -0.011631
 H        -0.580319         0.560227        -0.847250
 H         0.371431        -0.986974        -1.507487
 H         1.679596        -1.643302         1.397316
 H         2.465210        -2.253887        -0.160454
 H         4.228313        -0.965041         1.746179
 H         4.488787         1.781054        -0.448719
 H         1.769096         1.786130        -1.234617
 H         2.612048         0.397595        -1.991405
 H         3.432970         1.508528         1.888833
