19
Iteration:  1542charge 0 multiplicity 1
 C         0.125749        -0.462596        -0.698378
 C         1.448659        -0.055989        -0.115160
 C         2.298404        -1.285654         0.452750
 C         3.573726        -0.611523         0.914845
 O         4.382181        -0.255049        -0.246929
 C         3.594266         0.942713        -0.270918
 C         2.375360         0.784153        -1.096085
 C         3.022063         0.813993         1.203170
 O         1.584151         0.826658         1.191385
 H        -0.316445        -1.134811         0.005133
 H        -0.413786         0.433083        -1.028014
 H         0.373931        -1.107024        -1.557340
 H         1.883661        -1.711867         1.422058
 H         2.567411        -2.194034        -0.164054
 H         4.152669        -1.350388         1.599049
 H         4.133332         1.821439        -0.681732
 H         2.018144         1.792032        -1.212472
 H         2.637320         0.236101        -1.982958
 H         3.552126         1.349094         1.971601
