19
Iteration:  2617
 C         0.127890        -0.333401        -0.582103
 C         1.553615        -0.054202        -0.165733
 C         2.292433        -1.309623         0.424035
 C         3.534938        -0.738011         0.980415
 O         4.375224        -0.300510        -0.175363
 C         3.531011         0.919524        -0.239957
 C         2.351194         0.773950        -1.167328
 C         3.046724         0.818820         1.207175
 O         1.661064         0.833188         1.048469
 H        -0.403012        -1.052463         0.038732
 H        -0.546748         0.595915        -0.715509
 H         0.048387        -0.682176        -1.644242
 H         1.702720        -1.602482         1.278024
 H         2.595867        -2.210250        -0.155635
 H         3.985393        -1.238793         1.855080
 H         4.269177         1.733828        -0.562150
 H         1.829915         1.782559        -1.172536
 H         2.626155         0.450744        -2.120653
 H         3.375119         1.547158         1.912947
