19
Iteration:  4138charge 0 multiplicity 1
 C        -0.044107        -0.238232        -0.647102
 C         1.414853        -0.054245        -0.121254
 C         2.284751        -1.348317         0.287286
 C         3.517592        -0.705548         1.004510
 O         4.482958        -0.257262        -0.070703
 C         3.725043         0.979242        -0.238417
 C         2.383436         0.727256        -1.090404
 C         3.086883         0.819575         1.138966
 O         1.661417         0.731691         1.093711
 H        -0.854375        -0.763848         0.036825
 H        -0.533234         0.687491        -0.955796
 H         0.115053        -0.882549        -1.616600
 H         1.568817        -1.821525         0.963622
 H         2.436256        -2.017727        -0.560048
 H         4.053915        -1.171405         1.822517
 H         4.226643         1.864196        -0.524919
 H         1.783224         1.641541        -1.371090
 H         2.550706         0.134106        -2.066161
 H         3.246668         1.354916         2.070955
