19
Iteration:  4853
 C         0.135028        -0.381992        -0.702798
 C         1.500171         0.003552        -0.083955
 C         2.121403        -1.331005         0.468789
 C         3.496371        -0.730653         1.003774
 O         4.409037        -0.320706        -0.091366
 C         3.677407         0.905919        -0.293376
 C         2.411668         0.750657        -1.101581
 C         3.075883         0.821154         1.156938
 O         1.627950         0.942750         1.036776
 H        -0.776832         0.300366        -0.598672
 H         0.174918        -0.352245        -1.772719
 H        -0.300537        -1.378643        -0.449539
 H         1.523743        -1.880723         1.178060
 H         2.412020        -2.134176        -0.224050
 H         3.973453        -1.387449         1.695990
 H         4.397056         1.746055        -0.576030
 H         1.928850         1.602601        -1.377154
 H         2.662032         0.275130        -1.998853
 H         3.713995         1.584373         1.793135
