19
Iteration:   595
 C         0.010032        -0.313356        -0.424073
 C         1.461070        -0.093676        -0.094649
 C         2.307229        -1.330142         0.226174
 C         3.499424        -0.622904         0.896081
 O         4.570642        -0.192497         0.033508
 C         3.612665         0.941460        -0.257691
 C         2.319136         0.639453        -1.196053
 C         3.049068         0.844173         1.108078
 O         1.596248         0.765353         1.026266
 H        -0.636832        -0.692896         0.467908
 H        -0.444453         0.679981        -0.701500
 H        -0.036027        -0.895254        -1.383066
 H         1.744717        -2.043703         0.891584
 H         2.707803        -1.893739        -0.613074
 H         4.180061        -1.131183         1.711594
 H         4.158313         1.775342        -0.601740
 H         1.881822         1.572680        -1.450791
 H         2.584987        -0.025146        -2.056840
 H         3.404627         1.483775         1.853911
