19
Iteration:  2477
 C         0.083905        -0.348865        -0.534141
 C         1.469309        -0.087437        -0.104511
 C         2.250998        -1.309750         0.414457
 C         3.473944        -0.683212         0.936053
 O         4.432207        -0.281367        -0.182168
 C         3.698332         0.981069        -0.258638
 C         2.418742         0.705089        -1.104296
 C         3.003270         0.868423         1.167642
 O         1.637830         0.797263         1.023612
 H        -0.436852        -0.914702         0.249003
 H        -0.368804         0.645039        -0.844249
 H        -0.060581        -0.874971        -1.500190
 H         1.667700        -1.804346         1.198641
 H         2.589094        -2.071798        -0.385617
 H         3.931857        -1.154302         1.774468
 H         4.331599         1.827776        -0.687851
 H         1.908982         1.693183        -1.363922
 H         2.651852         0.218011        -2.008900
 H         3.200748         1.451467         2.069557
