19
Iteration:  2568charge 0 multiplicity 1
 C         0.152834        -0.390207        -0.656843
 C         1.512615        -0.036770        -0.121538
 C         2.220556        -1.267081         0.428819
 C         3.580246        -0.663879         0.977474
 O         4.304519        -0.302066        -0.218115
 C         3.597559         0.987833        -0.249297
 C         2.357662         0.718321        -1.107281
 C         3.065932         0.764626         1.202626
 O         1.673817         0.874517         1.112197
 H        -0.508589        -0.918806         0.065411
 H        -0.338174         0.424711        -1.090597
 H         0.210248        -1.053402        -1.503984
 H         1.618361        -1.727806         1.242005
 H         2.421293        -1.988194        -0.365981
 H         4.145534        -1.293077         1.689252
 H         4.270293         1.745170        -0.530653
 H         1.955516         1.678282        -1.425391
 H         2.657074         0.043164        -2.002810
 H         3.380287         1.356257         2.095825
