19
Iteration:   476charge 0 multiplicity 1
 C        -0.034207        -0.180582        -0.288070
 C         1.469409        -0.118963        -0.219096
 C         2.400492        -1.368852         0.227638
 C         3.533708        -0.701898         0.931639
 O         4.527174        -0.146715         0.023981
 C         3.616003         1.103886        -0.267820
 C         2.473197         0.573772        -1.241087
 C         2.975857         0.766734         1.081166
 O         1.547759         0.707183         0.992793
 H        -0.491706        -0.574439         0.673756
 H        -0.398619         0.876504        -0.321137
 H        -0.448670        -0.668964        -1.187582
 H         1.524851        -1.817546         0.900855
 H         2.640452        -2.115112        -0.532879
 H         3.924981        -1.418768         1.773724
 H         4.061745         2.102807        -0.419415
 H         1.972259         1.416942        -1.664618
 H         2.917927        -0.074332        -2.052329
 H         3.206181         1.191103         2.029282
