19
Iteration:  4341charge 0 multiplicity 1
 C         0.138817        -0.231577        -0.622199
 C         1.562240        -0.064366        -0.077487
 C         2.192589        -1.340891         0.327628
 C         3.507453        -0.707149         0.930423
 O         4.416985        -0.287688        -0.121347
 C         3.604147         1.001741        -0.271133
 C         2.390379         0.754770        -1.117278
 C         3.009821         0.743137         1.197735
 O         1.632830         0.804094         1.096796
 H        -0.509524        -0.893858         0.035597
 H        -0.304766         0.777275        -0.910628
 H         0.141757        -0.625069        -1.632386
 H         1.579957        -1.811848         1.154511
 H         2.310704        -2.202708        -0.386613
 H         4.069472        -1.269140         1.711507
 H         4.472304         1.731952        -0.517062
 H         1.900777         1.601538        -1.479159
 H         2.647228         0.120727        -1.920207
 H         3.345927         1.216754         2.092299
