19
Iteration:  3002
 C         0.161677        -0.291043        -0.715514
 C         1.516398         0.005667        -0.095767
 C         2.296161        -1.348046         0.472773
 C         3.538171        -0.698052         1.030572
 O         4.285718        -0.318866        -0.203397
 C         3.631115         0.929191        -0.308706
 C         2.385693         0.758468        -1.092461
 C         3.061040         0.842756         1.200741
 O         1.604505         0.815453         1.082675
 H        -0.607056        -0.641076         0.027448
 H        -0.276230         0.568812        -1.189870
 H         0.223993        -1.190181        -1.399301
 H         1.636350        -1.939493         1.159318
 H         2.599318        -2.054270        -0.283501
 H         4.025738        -1.182746         1.846584
 H         4.304000         1.760733        -0.567993
 H         1.907450         1.719582        -1.377111
 H         2.606763         0.103534        -2.042527
 H         3.564557         1.299668         2.024390
