19
Iteration:  3532charge 0 multiplicity 1
 C         0.009789        -0.125147        -0.408736
 C         1.453595        -0.087838        -0.152572
 C         2.379407        -1.337135         0.171234
 C         3.507383        -0.712357         0.998713
 O         4.541073        -0.178942         0.063142
 C         3.622321         0.919976        -0.304972
 C         2.434186         0.585380        -1.245431
 C         2.930223         0.774871         1.075742
 O         1.539192         0.765182         1.060720
 H        -0.504988        -0.189246         0.548868
 H        -0.212209         0.784030        -0.901565
 H        -0.095542        -0.958124        -1.114426
 H         1.690439        -1.902968         0.839187
 H         2.913874        -1.905214        -0.614211
 H         3.915432        -1.320504         1.810317
 H         4.202693         1.829211        -0.303438
 H         1.898787         1.497638        -1.606731
 H         2.750218        -0.053097        -1.934422
 H         3.428552         1.398813         1.853376
