19
Iteration:   240charge 0 multiplicity 1
 C         0.139664        -0.452518        -0.779367
 C         1.434907        -0.004798        -0.073986
 C         2.263950        -1.312625         0.408524
 C         3.556318        -0.681752         0.950427
 O         4.405683        -0.308769        -0.179458
 C         3.627946         1.001876        -0.342995
 C         2.286957         0.828932        -1.112223
 C         3.110750         0.822062         1.171216
 O         1.629183         0.814479         1.268549
 H        -0.449537        -0.980009         0.029134
 H        -0.485177         0.365066        -1.119250
 H         0.514580        -1.121322        -1.543837
 H         1.632942        -1.687308         1.236080
 H         2.398203        -2.157612        -0.289551
 H         3.993169        -1.337513         1.587163
 H         4.465338         1.721533        -0.624231
 H         1.780307         1.761698        -1.269502
 H         2.352047         0.279410        -1.982791
 H         3.509973         1.429140         2.061623
