19
Iteration:  4830charge 0 multiplicity 1
 C         0.081274        -0.250083        -0.605807
 C         1.488604        -0.035306        -0.164847
 C         2.256100        -1.211777         0.321828
 C         3.530451        -0.633918         1.009154
 O         4.436697        -0.346855        -0.039917
 C         3.639360         0.931182        -0.298055
 C         2.415567         0.588326        -1.127254
 C         2.968275         0.772102         1.164004
 O         1.641591         0.858951         1.053362
 H        -0.532885         0.705390        -0.734767
 H         0.010409        -0.666864        -1.585801
 H        -0.507276        -0.921477         0.056385
 H         1.671756        -1.793363         1.037452
 H         2.504087        -1.977990        -0.420164
 H         3.921592        -1.233749         1.842120
 H         4.351925         1.742886        -0.500817
 H         2.027876         1.461550        -1.528532
 H         2.692446         0.021753        -1.930652
 H         3.369558         1.317979         2.127732
