19
Iteration:  3111charge 0 multiplicity 1
 C        -0.076239        -0.194025        -0.484786
 C         1.436181        -0.075511        -0.171483
 C         2.248368        -1.283368         0.310069
 C         3.535241        -0.704029         0.932742
 O         4.635522        -0.126229        -0.011207
 C         3.650557         0.922984        -0.244158
 C         2.465519         0.518731        -1.118504
 C         2.956606         0.677789         1.154805
 O         1.575167         0.854390         0.943517
 H        -0.535648        -0.921527         0.206013
 H        -0.607318         0.708027        -0.239131
 H        -0.289062        -0.361541        -1.603835
 H         1.768204        -1.881683         1.137679
 H         2.505605        -1.956340        -0.503311
 H         4.050845        -1.215057         1.746177
 H         4.172110         1.909501        -0.425144
 H         2.106899         1.425538        -1.504430
 H         2.713439        -0.161382        -2.015267
 H         3.469825         1.231383         1.902817
