19
Iteration:  1634
 C         0.009833        -0.182463        -0.344930
 C         1.438167        -0.149449        -0.153985
 C         2.317878        -1.458876         0.170719
 C         3.601787        -0.677795         0.895048
 O         4.495581        -0.034549         0.124736
 C         3.630242         0.993217        -0.327154
 C         2.337756         0.541777        -1.244411
 C         3.021800         0.800942         1.141641
 O         1.598451         0.753903         0.997624
 H        -0.475935        -0.606446         0.561975
 H        -0.292575         0.827278        -0.541222
 H        -0.333997        -0.871451        -1.095460
 H         1.815068        -2.051114         1.015332
 H         2.641264        -1.962211        -0.715020
 H         4.081405        -1.328985         1.572065
 H         4.116928         2.070858        -0.512065
 H         1.921999         1.539631        -1.711750
 H         2.742585        -0.147935        -2.056989
 H         3.306991         1.390072         2.048791
