19
Iteration:  3061
 C         0.060109        -0.261797        -0.511299
 C         1.507730        -0.144115        -0.168217
 C         2.310422        -1.335228         0.367907
 C         3.502145        -0.692733         0.986170
 O         4.465135        -0.294621        -0.088632
 C         3.662641         0.934868        -0.230761
 C         2.404710         0.728483        -1.151548
 C         2.968584         0.863193         1.157534
 O         1.577284         0.800694         0.975054
 H        -0.588056        -0.512056         0.327211
 H        -0.304618         0.769171        -0.904553
 H        -0.198285        -0.895518        -1.371050
 H         1.717180        -1.761675         1.179465
 H         2.561528        -2.036505        -0.466315
 H         4.093039        -1.275815         1.768688
 H         4.304016         1.768797        -0.470136
 H         1.965105         1.762376        -1.341400
 H         2.688095         0.331565        -2.173188
 H         3.403416         1.409947         2.034009
