19
Iteration:  1205
 C        -0.094389        -0.251932        -0.446712
 C         1.519378        -0.130763        -0.152246
 C         2.385343        -1.391584         0.213111
 C         3.568690        -0.638759         0.950019
 O         4.570646        -0.106952        -0.022638
 C         3.581627         0.942518        -0.229919
 C         2.371892         0.599857        -1.183217
 C         2.966561         0.808137         1.141590
 O         1.605489         0.782704         1.028711
 H        -0.566801        -0.695596         0.486562
 H        -0.614834         0.743478        -0.394780
 H        -0.527194        -0.722444        -1.381555
 H         1.934703        -2.135026         0.927722
 H         2.810310        -2.007156        -0.634776
 H         3.856937        -1.221023         1.759482
 H         4.040803         1.889395        -0.741684
 H         1.849049         1.498806        -1.539284
 H         2.841637        -0.021277        -1.972978
 H         3.291304         1.387100         2.047513
