19
Iteration:  4009
 C         0.148693        -0.272673        -0.639704
 C         1.541953        -0.019013        -0.139247
 C         2.238805        -1.280622         0.531073
 C         3.563102        -0.768155         0.891247
 O         4.362656        -0.322347        -0.192504
 C         3.635328         1.027207        -0.205927
 C         2.477306         0.794146        -1.090608
 C         2.969545         0.733216         1.173551
 O         1.561142         0.767045         1.014029
 H        -0.165821        -1.286733        -0.302531
 H        -0.481473         0.542583        -0.455087
 H         0.212033        -0.489082        -1.736381
 H         1.584146        -1.385155         1.459533
 H         2.304635        -2.226953        -0.052843
 H         4.132813        -1.230200         1.706810
 H         4.311669         1.808228        -0.503173
 H         1.912266         1.738802        -1.290567
 H         2.586547         0.305247        -2.140034
 H         3.240122         1.310757         2.085861
