19
Iteration:  4314
 C         0.052944        -0.358850        -0.767308
 C         1.491255         0.029004        -0.035515
 C         2.218138        -1.237473         0.330452
 C         3.501765        -0.693680         1.002955
 O         4.350885        -0.313326        -0.224138
 C         3.662576         0.917003        -0.216809
 C         2.390188         0.778724        -1.047643
 C         3.188893         0.764277         1.213476
 O         1.597268         0.827432         1.147894
 H        -0.725917        -0.758605        -0.151494
 H        -0.263434         0.250674        -1.617460
 H         0.259655        -1.300132        -1.424498
 H         1.704425        -1.875639         1.033841
 H         2.594576        -1.938220        -0.374848
 H         4.057002        -1.388683         1.636781
 H         4.399117         1.617535        -0.332654
 H         2.018715         1.880494        -1.098875
 H         2.426135         0.296766        -2.097621
 H         3.601938         1.381490         2.061578
