19
Iteration:  1838charge 0 multiplicity 1
 C         0.122456        -0.456872        -0.679956
 C         1.488593        -0.122363        -0.086456
 C         2.325921        -1.350223         0.530311
 C         3.565482        -0.630440         1.029222
 O         4.280249        -0.280248        -0.280653
 C         3.680805         0.981390        -0.248679
 C         2.398067         0.905007        -1.129788
 C         3.058633         0.842599         1.101921
 O         1.577969         0.778895         1.113402
 H        -0.652922        -0.927883        -0.080056
 H        -0.326100         0.532123        -0.876922
 H         0.212396        -1.097782        -1.570940
 H         1.678442        -1.765539         1.274865
 H         2.591269        -2.189438        -0.038039
 H         4.203481        -1.155879         1.756969
 H         4.393263         1.692834        -0.433365
 H         1.884173         1.839052        -1.299440
 H         2.583061         0.442138        -2.087285
 H         3.333624         1.397824         1.993031
