19
Iteration:  1254charge 0 multiplicity 1
 C         0.082667        -0.497915        -0.715672
 C         1.509844        -0.153886        -0.147355
 C         2.248297        -1.328662         0.472530
 C         3.631459        -0.643303         0.930181
 O         4.274400        -0.245314        -0.234580
 C         3.651971         1.047297        -0.252595
 C         2.357692         0.799894        -1.094092
 C         3.089094         0.811631         1.229562
 O         1.654430         0.880953         1.142086
 H        -0.523899        -1.132992        -0.082298
 H        -0.618291         0.293590        -0.983510
 H         0.293279        -0.968850        -1.664747
 H         1.643791        -1.681207         1.303563
 H         2.516354        -2.215016        -0.076626
 H         4.180848        -1.395787         1.618736
 H         4.282717         1.871647        -0.451470
 H         1.819685         1.739154        -1.147491
 H         2.605634         0.357973        -2.048624
 H         3.401123         1.321697         2.104960
