19
Iteration:  1386charge 0 multiplicity 1
 C         0.136324        -0.369403        -0.580716
 C         1.535814        -0.081548        -0.108213
 C         2.315912        -1.346264         0.453639
 C         3.581580        -0.625146         0.917440
 O         4.326513        -0.255667        -0.190888
 C         3.658586         0.962398        -0.311791
 C         2.321514         0.769128        -1.051755
 C         3.030579         0.774242         1.195445
 O         1.589212         0.804581         1.040175
 H        -0.516055        -1.053681         0.036331
 H        -0.433988         0.522378        -0.902715
 H         0.406329        -0.927549        -1.514669
 H         1.684367        -1.772322         1.196833
 H         2.629543        -2.093921        -0.417623
 H         4.118269        -1.161188         1.839245
 H         4.197089         1.858731        -0.401641
 H         1.736716         1.636461        -1.250327
 H         2.531459         0.371902        -2.060308
 H         3.344873         1.609829         1.881313
