19
Iteration:  1491
 C        -0.073945        -0.197696        -0.335978
 C         1.484087        -0.172882        -0.218592
 C         2.408094        -1.385497         0.200378
 C         3.611398        -0.609030         1.049100
 O         4.571967        -0.151886        -0.038344
 C         3.646405         1.000071        -0.268855
 C         2.426959         0.594485        -1.293952
 C         2.888011         0.786895         1.112485
 O         1.508694         0.725238         1.028662
 H        -0.301977        -0.546308         0.664279
 H        -0.225516         0.899637        -0.340285
 H        -0.604139        -0.816759        -1.062338
 H         1.815650        -2.106907         0.886628
 H         2.706851        -1.891712        -0.620353
 H         4.060837        -1.155271         1.804566
 H         4.061558         2.099154        -0.387991
 H         1.777451         1.570051        -1.515552
 H         2.923059         0.002483        -2.104253
 H         3.122494         1.347459         2.054048
