19
Iteration:  2128charge 0 multiplicity 1
 C         0.136636        -0.477478        -0.669659
 C         1.461071        -0.052199        -0.114849
 C         2.275986        -1.204891         0.454613
 C         3.560057        -0.683216         1.000478
 O         4.394646        -0.312671        -0.285860
 C         3.645030         0.990909        -0.241047
 C         2.324981         0.758352        -1.067845
 C         3.121448         0.789649         1.215016
 O         1.579132         0.859550         1.111385
 H        -0.518347        -0.937044         0.047623
 H        -0.556537         0.285428        -1.147307
 H         0.160074        -1.140134        -1.600595
 H         1.693477        -1.697610         1.228448
 H         2.490191        -1.982380        -0.358262
 H         4.137109        -1.349913         1.637512
 H         4.236757         1.964483        -0.503074
 H         1.768949         1.692279        -1.327000
 H         2.589110         0.321664        -1.975797
 H         3.432932         1.416736         2.035429
