19
Iteration:  1520
 C         0.056068        -0.359171        -0.527987
 C         1.488176        -0.087346        -0.079218
 C         2.275011        -1.318594         0.327474
 C         3.548326        -0.667633         0.968044
 O         4.454200        -0.147639        -0.093786
 C         3.624542         1.052747        -0.286166
 C         2.333764         0.668969        -1.132473
 C         3.039555         0.778614         1.116844
 O         1.641515         0.757537         1.031342
 H        -0.417039        -0.949809         0.247508
 H        -0.387854         0.618571        -0.756889
 H         0.047095        -0.986322        -1.434860
 H         1.737104        -1.892955         1.130894
 H         2.395308        -2.052726        -0.536216
 H         4.150662        -1.364574         1.669092
 H         4.165027         1.998175        -0.453787
 H         1.763239         1.516904        -1.488420
 H         2.768840         0.029315        -1.885187
 H         3.179547         1.294548         2.032818
