19
Iteration:  2389
 C         0.001316        -0.230582        -0.360775
 C         1.495648        -0.056181        -0.210055
 C         2.321746        -1.308045         0.228194
 C         3.548036        -0.696091         0.964199
 O         4.521473        -0.178316         0.053347
 C         3.596450         0.993040        -0.261274
 C         2.376642         0.555985        -1.217960
 C         3.018139         0.774776         1.114730
 O         1.588170         0.752422         0.956433
 H        -0.396612        -0.456751         0.630453
 H        -0.394396         0.851520        -0.516275
 H        -0.303350        -0.840472        -1.255504
 H         1.904268        -1.848384         1.112013
 H         2.515006        -2.144847        -0.512830
 H         4.029392        -1.207172         1.780130
 H         4.170562         1.868044        -0.731414
 H         1.847920         1.577789        -1.514364
 H         2.621508         0.082866        -2.131968
 H         3.275523         1.310015         2.060939
