19
Iteration:  1839charge 0 multiplicity 1
 C         0.130170        -0.458241        -0.683115
 C         1.489426        -0.116883        -0.083101
 C         2.328984        -1.351680         0.538407
 C         3.567510        -0.625872         1.020769
 O         4.273747        -0.280333        -0.275453
 C         3.676007         0.972754        -0.249249
 C         2.396201         0.912133        -1.132482
 C         3.057549         0.845699         1.097786
 O         1.581471         0.773667         1.116426
 H        -0.655283        -0.942312        -0.082852
 H        -0.312795         0.526656        -0.882844
 H         0.243496        -1.095712        -1.567008
 H         1.641883        -1.764983         1.302548
 H         2.558116        -2.140619        -0.043803
 H         4.186176        -1.182212         1.719978
 H         4.442871         1.706770        -0.440306
 H         1.875091         1.802707        -1.296920
 H         2.585921         0.456425        -2.094954
 H         3.312629         1.380055         1.984558
