19
Iteration:  4313charge 0 multiplicity 1
 C         0.044992        -0.364649        -0.771524
 C         1.493819         0.018604        -0.039454
 C         2.208334        -1.241540         0.325211
 C         3.504977        -0.693035         1.011310
 O         4.350746        -0.314980        -0.220290
 C         3.663467         0.921441        -0.215770
 C         2.390378         0.796407        -1.045083
 C         3.185596         0.760798         1.214537
 O         1.610074         0.827556         1.140798
 H        -0.771200        -0.746300        -0.165506
 H        -0.258098         0.233878        -1.574048
 H         0.226427        -1.314279        -1.386456
 H         1.702342        -1.853543         1.058515
 H         2.603819        -1.939295        -0.365731
 H         4.075818        -1.352969         1.634888
 H         4.405529         1.617019        -0.354565
 H         1.992375         1.891583        -1.100377
 H         2.454984         0.305859        -2.119254
 H         3.608319         1.359698         2.063378
