19
Iteration:  3819charge 0 multiplicity 1
 C         0.007230        -0.170503        -0.375958
 C         1.497290        -0.079530        -0.248569
 C         2.220029        -1.370459         0.175965
 C         3.423719        -0.687857         0.937426
 O         4.522561        -0.131607         0.058548
 C         3.682749         0.935314        -0.193273
 C         2.499427         0.521656        -1.193918
 C         2.950527         0.801038         1.132047
 O         1.623867         0.809728         0.990624
 H        -0.319368        -0.977160         0.238650
 H        -0.388440         0.852507        -0.209135
 H        -0.557149        -0.393363        -1.253127
 H         1.572958        -1.935783         0.900948
 H         2.595930        -1.986231        -0.668337
 H         3.992804        -1.259103         1.674501
 H         4.212110         1.848213        -0.597393
 H         2.208696         1.448784        -1.787860
 H         2.969774        -0.213056        -1.810445
 H         3.316198         1.148651         2.086212
