19
Iteration:  4888charge 0 multiplicity 1
 C         0.109978        -0.228115        -0.573393
 C         1.564877        -0.076814        -0.225803
 C         2.251507        -1.322263         0.470491
 C         3.479585        -0.653593         1.075542
 O         4.350492        -0.364237        -0.074493
 C         3.631096         0.973872        -0.329454
 C         2.429707         0.745083        -1.185739
 C         3.039248         0.771525         1.224941
 O         1.576668         0.822931         0.931379
 H        -0.449213         0.417948         0.100269
 H         0.041775         0.118241        -1.664475
 H        -0.188757        -1.294433        -0.479311
 H         1.551717        -1.587044         1.257808
 H         2.683975        -2.147955        -0.134219
 H         4.025760        -1.294513         1.720692
 H         4.556163         1.628494        -0.406622
 H         1.958986         1.600076        -1.564570
 H         2.878528         0.025876        -1.909013
 H         3.343669         1.451220         2.049996
