19
Iteration:  4949charge 0 multiplicity 1
 C         0.015928        -0.154646        -0.526925
 C         1.465033        -0.085241        -0.206117
 C         2.263430        -1.315136         0.365153
 C         3.456502        -0.639915         1.016015
 O         4.500393        -0.225979         0.037448
 C         3.659887         0.839790        -0.254574
 C         2.488534         0.559919        -1.244827
 C         3.062836         0.775523         1.136458
 O         1.578523         0.852259         0.973412
 H        -0.598005        -0.077679         0.436479
 H        -0.353949         0.549706        -1.215296
 H        -0.129844        -1.182831        -0.889111
 H         1.579607        -1.746259         1.125083
 H         2.538278        -2.151213        -0.294853
 H         3.833206        -1.348525         1.790325
 H         4.063724         1.799296        -0.453396
 H         2.111024         1.623192        -1.673534
 H         2.617608        -0.052975        -2.128167
 H         3.450358         1.578595         1.871349
