19
Iteration:  1795charge 0 multiplicity 1
 C        -0.026169        -0.274421        -0.375028
 C         1.495257        -0.045165        -0.163345
 C         2.332362        -1.405562         0.217493
 C         3.502606        -0.699484         0.939758
 O         4.588720        -0.074421         0.031161
 C         3.614883         1.004559        -0.346382
 C         2.441919         0.592972        -1.238975
 C         2.976043         0.745782         1.138586
 O         1.550220         0.767017         1.077507
 H        -0.565453        -0.652853         0.490219
 H        -0.446453         0.743378        -0.563762
 H        -0.156072        -0.983617        -1.213239
 H         1.688701        -1.935420         0.987714
 H         2.427607        -1.978052        -0.610379
 H         3.928257        -1.266951         1.763262
 H         4.058924         2.003610        -0.536479
 H         2.027671         1.391195        -1.759343
 H         2.656498        -0.119018        -2.008980
 H         3.436197         1.470550         1.814770
