19
Iteration:  1811charge 0 multiplicity 1
 C         0.112507        -0.315283        -0.488362
 C         1.496303        -0.118477        -0.113170
 C         2.294130        -1.291997         0.347970
 C         3.568100        -0.658134         0.909499
 O         4.439534        -0.176889        -0.068560
 C         3.594392         0.969954        -0.229399
 C         2.366852         0.663910        -1.159467
 C         2.989564         0.818265         1.134860
 O         1.612957         0.779684         0.998075
 H        -0.477654        -0.751447         0.349557
 H        -0.418643         0.616125        -0.706832
 H        -0.007060        -1.017865        -1.322399
 H         1.738063        -1.939942         1.103153
 H         2.560352        -2.079741        -0.513600
 H         4.080134        -1.342749         1.622811
 H         4.278485         1.834196        -0.594663
 H         1.779115         1.619936        -1.477879
 H         2.666333         0.082444        -2.082052
 H         3.216785         1.295169         2.090837
