19
Iteration:  2893
 C         0.150851        -0.263021        -0.722630
 C         1.561608        -0.080126        -0.225405
 C         2.278685        -1.377947         0.526381
 C         3.548807        -0.665293         1.041514
 O         4.296829        -0.360462        -0.155320
 C         3.604436         0.966964        -0.338859
 C         2.353015         0.872306        -1.069655
 C         3.059738         0.842154         1.150841
 O         1.630420         0.723229         1.102552
 H        -0.323135        -0.776028         0.199136
 H        -0.281437         0.659264        -1.038006
 H         0.183089        -0.962125        -1.586513
 H         1.570205        -1.451574         1.344929
 H         2.509829        -2.285677        -0.007809
 H         4.029248        -1.238690         1.800810
 H         4.271137         1.759131        -0.681342
 H         1.814111         1.858223        -1.256538
 H         2.582613         0.389622        -2.142326
 H         3.436125         1.471490         2.028974
