19
Iteration:   322
 C        -0.059043        -0.156460        -0.410775
 C         1.408730        -0.198889        -0.130615
 C         2.362775        -1.363303         0.207421
 C         3.603252        -0.708736         0.840518
 O         4.585608        -0.052192         0.090414
 C         3.587772         0.966937        -0.269201
 C         2.388835         0.567964        -1.168393
 C         2.911723         0.774230         1.089560
 O         1.610368         0.773123         1.061191
 H        -0.566422        -0.478063         0.500031
 H        -0.114539         0.966738        -0.513936
 H        -0.300727        -0.586896        -1.421345
 H         1.864383        -2.182883         0.843681
 H         2.624081        -1.868858        -0.825375
 H         4.073372        -1.402877         1.710741
 H         4.125391         1.815323        -0.630393
 H         1.893155         1.409484        -1.712369
 H         2.687930        -0.142458        -2.052118
 H         3.447079         1.133681         1.945279
