19
Iteration:   801charge 0 multiplicity 1
 C         0.023185        -0.340926        -0.546213
 C         1.546223        -0.066430        -0.127310
 C         2.316162        -1.316448         0.401513
 C         3.582484        -0.634226         0.964879
 O         4.382691        -0.222751        -0.213190
 C         3.657040         1.037787        -0.260616
 C         2.398665         0.672419        -1.111215
 C         3.029308         0.833045         1.161706
 O         1.551110         0.683706         1.065352
 H        -0.502416        -0.928558         0.220301
 H        -0.519671         0.547117        -0.705751
 H         0.035361        -0.780126        -1.524421
 H         1.701051        -1.525294         1.272425
 H         2.530535        -2.119333        -0.362441
 H         4.205842        -1.161943         1.723569
 H         4.443759         1.760498        -0.432183
 H         1.734299         1.538958        -1.329634
 H         2.763385         0.360917        -2.149137
 H         3.344142         1.481388         2.021097
