19
Iteration:  2644charge 0 multiplicity 1
 C        -0.004597        -0.130179        -0.411529
 C         1.524488        -0.115635        -0.108056
 C         2.305084        -1.357751         0.277786
 C         3.481944        -0.623677         0.940568
 O         4.485116        -0.198086        -0.081490
 C         3.650048         1.008215        -0.311024
 C         2.503481         0.578255        -1.139923
 C         2.952440         0.783788         1.159469
 O         1.576462         0.690362         0.986101
 H        -0.562061        -0.542549         0.487540
 H        -0.394466         0.851905        -0.470062
 H        -0.413034        -0.551213        -1.325381
 H         1.803684        -2.180674         0.874529
 H         2.764236        -1.864918        -0.574003
 H         3.860891        -0.894647         1.922206
 H         4.308136         1.743145        -0.693042
 H         2.004151         1.407316        -1.577088
 H         2.857917        -0.088119        -2.017021
 H         3.148997         1.299129         2.172705
