19
Iteration:  3211charge 0 multiplicity 1
 C        -0.045646        -0.233902        -0.483713
 C         1.481966        -0.036858        -0.137098
 C         2.260313        -1.272359         0.291932
 C         3.576083        -0.772389         0.921143
 O         4.510363        -0.162347        -0.022697
 C         3.674095         0.963340        -0.228153
 C         2.439530         0.652534        -1.206300
 C         2.958958         0.795779         1.147330
 O         1.580100         0.748525         1.019419
 H        -0.626080        -0.240020         0.399627
 H        -0.446257         0.574684        -1.190432
 H        -0.070136        -1.155361        -1.104846
 H         1.833997        -1.858037         1.156062
 H         2.438766        -2.075123        -0.425280
 H         3.986817        -1.492209         1.666994
 H         4.262305         1.875901        -0.333327
 H         2.091619         1.405449        -1.811317
 H         2.963481        -0.149246        -1.869105
 H         3.290823         1.361316         2.067132
