19
Iteration:  3080charge 0 multiplicity 1
 C         0.084516        -0.114687        -0.379095
 C         1.523198        -0.067918        -0.225778
 C         2.293663        -1.407760         0.228889
 C         3.474346        -0.627408         1.040907
 O         4.426222        -0.211102         0.028191
 C         3.659059         0.977307        -0.350690
 C         2.480905         0.596901        -1.174569
 C         2.943011         0.794690         1.124913
 O         1.595347         0.692305         0.998302
 H        -0.315121        -0.676417         0.437000
 H        -0.465743         0.855402        -0.388202
 H        -0.347212        -0.634553        -1.288208
 H         1.656053        -2.114262         0.804786
 H         2.888623        -1.827085        -0.552164
 H         3.741181        -1.012960         2.030808
 H         4.303375         1.779242        -0.605559
 H         1.900708         1.443085        -1.596504
 H         2.782058        -0.055573        -2.129465
 H         3.323713         1.501643         1.853820
