19
Iteration:  4199
 C         0.008108        -0.302842        -0.624103
 C         1.504338        -0.110467        -0.184389
 C         2.284814        -1.372117         0.372855
 C         3.539028        -0.704798         1.005804
 O         4.307660        -0.278002        -0.176688
 C         3.653626         0.993635        -0.184989
 C         2.513386         0.846000        -1.136718
 C         2.996609         0.761192         1.178836
 O         1.657631         0.785619         1.063604
 H        -0.450384        -1.099488        -0.084440
 H        -0.377885         0.701705        -0.330350
 H        -0.095661        -0.331941        -1.665093
 H         1.581224        -1.769279         1.175643
 H         2.605879        -2.318023        -0.150589
 H         4.068764        -1.128684         1.913760
 H         4.273404         1.893883        -0.624956
 H         2.113484         1.845053        -1.448877
 H         2.746471         0.300712        -2.029721
 H         3.404593         1.228169         2.087515
