19
Iteration:  3304charge 0 multiplicity 1
 C         0.218426        -0.410931        -0.715001
 C         1.469713        -0.075311        -0.088725
 C         2.224182        -1.315408         0.471717
 C         3.472321        -0.708025         0.949323
 O         4.250900        -0.278255        -0.169007
 C         3.583730         1.020285        -0.257792
 C         2.429147         0.766419        -1.159509
 C         3.082349         0.728188         1.227980
 O         1.711947         0.942024         1.117990
 H        -0.200611        -1.284382        -0.119364
 H        -0.561574         0.285149        -0.878788
 H         0.583178        -0.677976        -1.752439
 H         1.592846        -1.732034         1.238708
 H         2.320843        -2.178943        -0.173431
 H         4.171264        -1.298033         1.523697
 H         4.338075         1.812240        -0.555528
 H         1.671930         1.649841        -1.478877
 H         2.763236         0.275284        -2.056312
 H         3.468317         1.248088         2.101678
