19
Iteration:  3048
 C        -0.000769        -0.326588        -0.666975
 C         1.486349        -0.004171        -0.154887
 C         2.241114        -1.339061         0.450767
 C         3.643016        -0.725942         0.941443
 O         4.426104        -0.290472        -0.114221
 C         3.646745         0.970884        -0.248211
 C         2.403865         0.767566        -1.095523
 C         3.038975         0.724092         1.206321
 O         1.613292         0.884073         1.007423
 H        -0.561211        -0.629306         0.199282
 H        -0.494338         0.534154        -1.222372
 H         0.221645        -1.281322        -1.258705
 H         1.664255        -1.746433         1.310354
 H         2.335888        -2.222407        -0.171006
 H         4.127492        -1.286568         1.774511
 H         4.274911         1.765358        -0.517090
 H         1.761285         1.676914        -1.273101
 H         2.666359         0.183621        -2.125009
 H         3.181264         1.485436         1.959055
