19
Iteration:   669
 C         0.137559        -0.380012        -0.648819
 C         1.475584        -0.073814        -0.089012
 C         2.248982        -1.277037         0.426801
 C         3.598715        -0.668859         0.962166
 O         4.382130        -0.240926        -0.199875
 C         3.576106         0.985203        -0.309240
 C         2.323858         0.718364        -1.143355
 C         3.071531         0.860279         1.176312
 O         1.628233         0.752695         1.170527
 H        -0.560608        -0.992960        -0.081238
 H        -0.330994         0.506977        -1.043357
 H         0.467513        -0.964600        -1.510446
 H         1.709594        -1.583633         1.277068
 H         2.253910        -2.238937        -0.281476
 H         4.192102        -1.202124         1.739257
 H         4.283146         1.760863        -0.594989
 H         1.972823         1.818970        -1.258858
 H         2.490527         0.116298        -2.098379
 H         3.481640         1.397596         1.991044
