19
Iteration:  2547
 C         0.060089        -0.181402        -0.461438
 C         1.551586        -0.123783        -0.158313
 C         2.341692        -1.410136         0.372469
 C         3.504606        -0.658938         1.007987
 O         4.457679        -0.253734        -0.081286
 C         3.607697         0.962319        -0.289076
 C         2.366852         0.732002        -1.179210
 C         2.998716         0.837422         1.118894
 O         1.587431         0.734433         0.986997
 H        -0.529107        -0.456655         0.437658
 H        -0.289584         0.716097        -0.891153
 H        -0.160682        -0.882583        -1.269226
 H         1.742979        -1.919549         1.165427
 H         2.538593        -2.091403        -0.418914
 H         4.088237        -1.241619         1.773435
 H         4.188936         1.816508        -0.520424
 H         1.858608         1.693648        -1.389005
 H         2.622179         0.195495        -2.189271
 H         3.361036         1.360794         2.036479
