19
Iteration:  3520
 C        -0.069999        -0.125906        -0.459563
 C         1.525993        -0.129545        -0.239181
 C         2.363992        -1.378418         0.213848
 C         3.509127        -0.614459         1.014223
 O         4.509457        -0.235746         0.073462
 C         3.610921         0.953144        -0.268375
 C         2.437275         0.610585        -1.328511
 C         2.992285         0.810065         1.211403
 O         1.605605         0.742694         1.091156
 H        -0.595551        -0.468903         0.465416
 H        -0.498472         0.798473        -0.694705
 H        -0.549194        -0.818173        -1.138141
 H         1.949920        -2.230324         0.790064
 H         2.660439        -1.892842        -0.740399
 H         3.891554        -1.232016         1.860718
 H         4.129760         1.807374        -0.676126
 H         2.055841         1.542018        -1.814956
 H         2.651039         0.036717        -2.139114
 H         3.350033         1.613296         1.899705
