19
Iteration:  1001charge 0 multiplicity 1
 C         0.122257        -0.401105        -0.604241
 C         1.550238        -0.086896        -0.131644
 C         2.274221        -1.344368         0.381563
 C         3.572414        -0.722565         0.931592
 O         4.355016        -0.208281        -0.187742
 C         3.581024         1.044960        -0.250951
 C         2.354280         0.777394        -1.159601
 C         3.045942         0.762855         1.208764
 O         1.623189         0.834639         1.129197
 H        -0.431570        -0.850027         0.190512
 H        -0.431912         0.454085        -0.977736
 H         0.148758        -1.222054        -1.320048
 H         1.545232        -1.795314         1.211905
 H         2.560953        -2.178931        -0.217760
 H         4.294409        -1.315813         1.683897
 H         4.127447         2.003528        -0.499602
 H         1.701106         1.675148        -1.408411
 H         2.677301         0.213907        -2.056708
 H         3.467632         1.409954         1.988546
