19
Iteration:   454charge 0 multiplicity 1
 C        -0.041339        -0.159706        -0.403522
 C         1.422948        -0.149786        -0.220893
 C         2.368457        -1.395857         0.308297
 C         3.584491        -0.634087         0.921836
 O         4.526334        -0.120852        -0.109538
 C         3.622580         0.959854        -0.199358
 C         2.434398         0.599926        -1.182931
 C         2.899575         0.772272         1.234958
 O         1.629173         0.726808         0.969774
 H        -0.524483        -0.511924         0.557275
 H        -0.504432         0.855300        -0.509406
 H        -0.426999        -0.673144        -1.306029
 H         1.814647        -2.148359         1.076196
 H         2.645798        -2.004478        -0.574028
 H         4.124618        -1.308760         1.738522
 H         4.169905         1.891329        -0.440954
 H         1.891798         1.486630        -1.506728
 H         2.883132         0.121047        -2.112480
 H         3.264586         1.459429         1.973515
