19
Iteration:   373charge 0 multiplicity 1
 C         0.154804        -0.373226        -0.521463
 C         1.556620        -0.070396        -0.132533
 C         2.283969        -1.355357         0.424690
 C         3.521702        -0.698323         0.932879
 O         4.323996        -0.245145        -0.219154
 C         3.609553         1.053716        -0.259137
 C         2.449699         0.846927        -1.164071
 C         3.022255         0.775867         1.232744
 O         1.577548         0.731562         1.038364
 H        -0.390659        -0.982354         0.212068
 H        -0.379016         0.585328        -0.745524
 H         0.283836        -1.027710        -1.421309
 H         1.624305        -1.611821         1.216269
 H         2.364977        -2.249442        -0.311396
 H         3.987182        -1.320707         1.619588
 H         4.303407         1.865687        -0.378159
 H         1.786861         1.698095        -1.150709
 H         2.557074         0.495212        -2.121996
 H         3.567769         1.388831         1.976199
