19
Iteration:   145
 C         0.042824        -0.338297        -0.546973
 C         1.508786        -0.091838        -0.110853
 C         2.296816        -1.340257         0.269574
 C         3.511899        -0.694675         0.956525
 O         4.466570        -0.200637        -0.057491
 C         3.621003         0.935617        -0.318181
 C         2.375325         0.664918        -1.111506
 C         3.033713         0.810501         1.141955
 O         1.592862         0.883533         1.074498
 H        -0.413909        -0.818818         0.337511
 H        -0.519446         0.571979        -0.687837
 H         0.076799        -1.018369        -1.393651
 H         1.820042        -1.963097         1.027906
 H         2.619030        -2.025406        -0.602271
 H         4.074458        -1.305456         1.727824
 H         3.958676         1.834729        -0.561208
 H         1.960009         1.724502        -1.258091
 H         2.552825         0.178095        -2.055310
 H         3.552391         1.323485         1.991777
