19
Iteration:  2262charge 0 multiplicity 1
 C         0.076711        -0.337111        -0.495892
 C         1.558308        -0.111812        -0.149992
 C         2.266516        -1.339550         0.358256
 C         3.452518        -0.671037         0.974371
 O         4.402593        -0.211350        -0.142927
 C         3.631785         0.979702        -0.277561
 C         2.387874         0.699604        -1.105432
 C         3.062191         0.836549         1.163201
 O         1.612874         0.777289         1.015142
 H        -0.513821        -0.838880         0.306699
 H        -0.261756         0.618739        -0.852069
 H         0.078202        -0.975774        -1.364365
 H         1.608577        -1.736212         1.087276
 H         2.604194        -2.136479        -0.379835
 H         4.082375        -1.075330         1.781979
 H         4.279079         1.791043        -0.630604
 H         1.892813         1.611985        -1.285298
 H         2.650754         0.244502        -2.057150
 H         3.415705         1.539299         1.997049
