19
Iteration:  2387
 C        -0.010357        -0.216109        -0.340089
 C         1.505171        -0.050756        -0.206344
 C         2.335083        -1.328457         0.234664
 C         3.526284        -0.700776         0.960974
 O         4.528040        -0.165904         0.060934
 C         3.599986         0.995827        -0.262778
 C         2.380417         0.565922        -1.217688
 C         3.008960         0.760716         1.098333
 O         1.584011         0.745344         0.939952
 H        -0.319217        -0.452641         0.648351
 H        -0.328560         0.861285        -0.519044
 H        -0.304014        -0.820419        -1.244906
 H         1.901377        -1.923304         1.110842
 H         2.522459        -2.080882        -0.502916
 H         4.005180        -1.219453         1.820241
 H         4.144827         1.862902        -0.721326
 H         1.851289         1.506115        -1.486506
 H         2.620047         0.105232        -2.144833
 H         3.286337         1.346961         1.983140
