19
Iteration:  2745
 C         0.178861        -0.412926        -0.717482
 C         1.546628        -0.076191        -0.111459
 C         2.186339        -1.307056         0.498268
 C         3.533697        -0.756671         0.954502
 O         4.349530        -0.335368        -0.202002
 C         3.654448         1.016312        -0.275814
 C         2.349028         0.825331        -1.028413
 C         3.053078         0.803033         1.163653
 O         1.629394         0.874622         1.058805
 H        -0.348400        -1.052159        -0.065618
 H        -0.455246         0.488775        -0.760241
 H         0.323431        -1.002958        -1.664701
 H         1.644105        -1.549805         1.472735
 H         2.156098        -2.140801        -0.208327
 H         4.204419        -1.298141         1.694365
 H         4.227252         1.896271        -0.561621
 H         1.806598         1.819570        -1.153449
 H         2.598812         0.499030        -2.051639
 H         3.470559         1.383822         1.952548
