19
Iteration:  2849
 C         0.130788        -0.354408        -0.593608
 C         1.507006         0.020081        -0.108329
 C         2.192442        -1.329570         0.319165
 C         3.449945        -0.763993         0.893549
 O         4.454714        -0.218939        -0.122342
 C         3.714615         0.995260        -0.227641
 C         2.345899         0.667091        -1.109742
 C         3.005036         0.763088         1.187272
 O         1.631874         0.874718         1.097196
 H        -0.506787        -0.411885         0.353820
 H        -0.220584         0.348279        -1.316126
 H         0.224672        -1.306102        -1.110398
 H         1.543101        -1.677281         1.115302
 H         2.346823        -2.094624        -0.428115
 H         4.039254        -1.266125         1.618450
 H         4.350738         1.849372        -0.503356
 H         1.875753         1.601238        -1.526703
 H         2.581816        -0.071094        -1.957299
 H         3.546900         1.345650         1.995386
