19
Iteration:  2441charge 0 multiplicity 1
 C         0.260347        -0.411394        -0.690535
 C         1.585066        -0.060277        -0.150426
 C         2.222498        -1.299027         0.542956
 C         3.513431        -0.680886         0.986610
 O         4.281012        -0.319833        -0.261631
 C         3.591283         0.927736        -0.305920
 C         2.293662         0.811971        -1.082867
 C         3.027045         0.798858         1.249064
 O         1.684413         0.860848         1.093547
 H        -0.544947        -0.865128        -0.189235
 H        -0.244872         0.586430        -0.893911
 H         0.392296        -0.993792        -1.690593
 H         1.766468        -1.669820         1.511738
 H         2.489556        -2.102609        -0.094424
 H         4.268253        -1.259776         1.599250
 H         4.330748         1.679140        -0.736699
 H         1.625243         1.661516        -1.083411
 H         2.468496         0.400809        -2.049934
 H         3.394892         1.636683         1.894311
