19
Iteration:  1585charge 0 multiplicity 1
 C         0.106492        -0.386546        -0.577056
 C         1.567845        -0.104515        -0.135444
 C         2.357014        -1.358087         0.433464
 C         3.552671        -0.713978         0.952524
 O         4.305916        -0.213469        -0.196060
 C         3.617876         1.011766        -0.291570
 C         2.384953         0.787968        -1.120174
 C         2.987946         0.815221         1.171625
 O         1.620666         0.796151         1.076343
 H        -0.455975        -0.878893         0.223667
 H        -0.406605         0.563348        -0.826694
 H         0.024370        -1.134500        -1.388212
 H         1.662894        -1.661343         1.173928
 H         2.649441        -2.131672        -0.338265
 H         4.082615        -1.097023         1.870079
 H         4.243884         1.827232        -0.487511
 H         1.769892         1.603060        -1.261478
 H         2.655112         0.327552        -2.052876
 H         3.366343         1.413171         1.963177
