19
Iteration:  4415charge 0 multiplicity 1
 C        -0.004180        -0.311453        -0.623169
 C         1.456539        -0.017330        -0.129142
 C         2.208158        -1.303370         0.209038
 C         3.522766        -0.706145         0.997930
 O         4.495170        -0.295346        -0.051995
 C         3.670657         0.938633        -0.208762
 C         2.377515         0.689046        -1.117792
 C         3.076316         0.748272         1.199392
 O         1.632794         0.877866         1.072274
 H        -0.550166        -1.038613         0.007781
 H        -0.684609         0.620954        -0.476041
 H         0.159657        -0.468225        -1.722348
 H         1.668529        -1.881221         0.978373
 H         2.500786        -1.996941        -0.604241
 H         4.131932        -1.276626         1.767069
 H         4.227178         1.835728        -0.555056
 H         2.001998         1.752531        -1.445089
 H         2.600234         0.092003        -2.012293
 H         3.521716         1.362838         1.977047
