19
Iteration:   422
 C         0.163772        -0.359643        -0.660862
 C         1.447889         0.011856        -0.080048
 C         2.268337        -1.349026         0.394448
 C         3.532093        -0.654582         0.930358
 O         4.422497        -0.229236        -0.177838
 C         3.614800         0.945483        -0.316110
 C         2.310610         0.775203        -1.096756
 C         3.021645         0.774238         1.162566
 O         1.665497         0.758210         1.192019
 H        -0.445075        -0.961038         0.065948
 H        -0.387351         0.509864        -1.025410
 H         0.450080        -1.102198        -1.425142
 H         1.547733        -1.913699         1.111934
 H         2.392663        -1.920931        -0.504229
 H         4.087943        -1.281754         1.747237
 H         4.235127         1.850109        -0.582503
 H         1.812408         1.755188        -1.321558
 H         2.569646         0.194319        -2.075235
 H         3.336342         1.460895         1.948254
