19
Iteration:  2289
 C         0.152729        -0.389607        -0.679180
 C         1.556187        -0.043592        -0.074887
 C         2.321590        -1.305085         0.542908
 C         3.570575        -0.646436         1.042854
 O         4.279589        -0.365921        -0.307184
 C         3.589449         0.951844        -0.309189
 C         2.367352         0.863159        -1.112280
 C         3.070622         0.789781         1.214342
 O         1.573785         0.792391         1.079890
 H        -0.474140        -0.986837        -0.035392
 H        -0.354439         0.440506        -1.220341
 H         0.459700        -1.013616        -1.592289
 H         1.562499        -1.651476         1.339854
 H         2.512063        -2.141166        -0.075309
 H         4.316546        -0.859591         1.809782
 H         4.352167         1.748323        -0.438167
 H         1.816751         1.879809        -1.276634
 H         2.522556         0.403615        -2.118016
 H         3.400337         1.486258         1.911567
