19
Iteration:  3840
 C         0.002259        -0.193272        -0.461663
 C         1.504348        -0.079646        -0.178902
 C         2.258125        -1.329639         0.340301
 C         3.522288        -0.730262         1.001146
 O         4.450795        -0.274198        -0.034172
 C         3.637002         1.014964        -0.266262
 C         2.519656         0.714002        -1.265161
 C         2.989442         0.740508         1.199157
 O         1.596380         0.772282         0.963210
 H        -0.442744        -0.974027         0.145163
 H        -0.540859         0.823290        -0.521753
 H        -0.212621        -0.628406        -1.461052
 H         1.614253        -1.684695         1.164253
 H         2.671397        -2.087007        -0.335310
 H         3.902289        -1.352301         1.823884
 H         4.256212         1.957290        -0.299256
 H         1.996208         1.644551        -1.655483
 H         2.847119         0.053152        -2.002367
 H         3.274728         1.411121         2.015421
