19
Iteration:  1777charge 0 multiplicity 1
 C        -0.142555        -0.195343        -0.371635
 C         1.402665        -0.154121        -0.209704
 C         2.287572        -1.304429         0.174606
 C         3.598164        -0.618020         0.902609
 O         4.591178        -0.095086         0.049064
 C         3.623010         0.978484        -0.213423
 C         2.418418         0.508900        -1.197791
 C         2.977320         0.810431         1.125673
 O         1.612849         0.702056         0.995339
 H        -0.382094        -0.581296         0.662796
 H        -0.594283         0.786217        -0.528729
 H        -0.442148        -0.934086        -1.105429
 H         1.990577        -2.094386         0.978900
 H         2.901832        -1.796871        -0.634757
 H         4.052979        -1.089574         1.762770
 H         4.218108         1.951940        -0.614794
 H         2.125921         1.469288        -1.731325
 H         2.932339        -0.210074        -1.899272
 H         3.272757         1.253165         2.038211
