19
Iteration:  4906
 C         0.034183        -0.191238        -0.572908
 C         1.535275        -0.046409        -0.145830
 C         2.231065        -1.364901         0.354469
 C         3.465639        -0.688364         1.001888
 O         4.442759        -0.253497        -0.023109
 C         3.665080         0.899592        -0.209002
 C         2.516933         0.527301        -1.203320
 C         2.966215         0.875165         1.103392
 O         1.615562         0.834416         0.984324
 H        -0.637446         0.422834         0.128196
 H        -0.227136         0.327773        -1.422772
 H        -0.434760        -1.167164        -0.460570
 H         1.750746        -2.001482         1.127803
 H         2.468529        -2.000549        -0.507524
 H         3.955699        -1.042724         1.928839
 H         4.277443         1.761721        -0.439570
 H         2.002038         1.529504        -1.405966
 H         2.795508         0.005482        -2.069642
 H         3.461626         1.508296         1.959726
