19
Iteration:  2560charge 0 multiplicity 1
 C         0.137263        -0.305379        -0.601537
 C         1.513445        -0.042139        -0.126312
 C         2.286843        -1.280359         0.408313
 C         3.549266        -0.699101         0.983718
 O         4.324776        -0.264465        -0.155537
 C         3.638225         0.996240        -0.273170
 C         2.321682         0.714708        -1.143820
 C         3.088450         0.706229         1.202086
 O         1.618724         0.819959         1.033588
 H        -0.475017        -0.694266         0.197482
 H        -0.292265         0.679815        -0.894642
 H         0.167904        -1.145409        -1.361533
 H         1.603032        -1.724268         1.174166
 H         2.725407        -2.019074        -0.205747
 H         4.075256        -1.239184         1.875086
 H         4.340705         1.826117        -0.538228
 H         1.636183         1.550554        -1.413681
 H         2.577677         0.090785        -2.076774
 H         3.436679         1.480205         1.965539
