19
Iteration:  3593charge 0 multiplicity 1
 C         0.274254        -0.329908        -0.657957
 C         1.575235        -0.023860        -0.106075
 C         2.190130        -1.285271         0.429847
 C         3.513396        -0.643034         0.971384
 O         4.291445        -0.384101        -0.211057
 C         3.663582         0.952892        -0.296396
 C         2.360130         0.780505        -1.087426
 C         3.046431         0.827127         1.255226
 O         1.595424         0.808435         1.076427
 H        -0.451474        -0.912454         0.024870
 H        -0.333874         0.442781        -1.203228
 H         0.566165        -1.068087        -1.409788
 H         1.546293        -1.694390         1.184156
 H         2.466916        -2.130736        -0.221832
 H         4.202101        -1.284367         1.597902
 H         4.419467         1.724353        -0.532698
 H         1.758372         1.687248        -1.128632
 H         2.458216         0.465572        -2.253161
 H         3.013882         1.414052         2.158470
