19
Iteration:  4236
 C        -0.021461        -0.112658        -0.486021
 C         1.443158        -0.069922        -0.125639
 C         2.285505        -1.386381         0.136532
 C         3.520824        -0.724750         0.939150
 O         4.583835        -0.101929         0.056138
 C         3.616306         0.924884        -0.295532
 C         2.400686         0.565176        -1.141840
 C         2.995867         0.704423         1.139826
 O         1.615309         0.779936         1.103559
 H        -0.837925        -0.477661         0.164465
 H        -0.269305         0.890968        -0.701354
 H        -0.162447        -0.681996        -1.431488
 H         1.780979        -2.044346         0.798447
 H         2.444043        -1.780100        -0.837332
 H         3.921251        -1.221696         1.794732
 H         4.196744         1.730934        -0.586556
 H         2.131328         1.576023        -1.568464
 H         2.683221        -0.158297        -1.994712
 H         3.356494         1.283981         1.983136
