19
Iteration:  2039
 C         0.059413        -0.343422        -0.509687
 C         1.459253        -0.132660        -0.144612
 C         2.229490        -1.330546         0.307389
 C         3.533969        -0.635244         0.964560
 O         4.470423        -0.197558        -0.102121
 C         3.597230         1.021617        -0.235425
 C         2.340607         0.670368        -1.141895
 C         3.081660         0.789929         1.135757
 O         1.650384         0.760939         1.044617
 H        -0.496842        -0.839040         0.342202
 H        -0.309290         0.725495        -0.735439
 H         0.255343        -0.874941        -1.500026
 H         1.684488        -1.834842         1.197731
 H         2.435786        -1.990300        -0.485478
 H         4.038996        -1.128644         1.820525
 H         4.077791         2.042122        -0.577737
 H         1.870631         1.619468        -1.436154
 H         2.804190         0.143274        -2.021698
 H         3.403060         1.415158         1.966910
