19
Iteration:  1496
 C        -0.058182        -0.203883        -0.333588
 C         1.539084        -0.160689        -0.230214
 C         2.402220        -1.402645         0.240492
 C         3.563990        -0.621624         0.960191
 O         4.554035        -0.135420        -0.032964
 C         3.609595         0.996241        -0.271755
 C         2.429075         0.582266        -1.268409
 C         2.935463         0.795227         1.144159
 O         1.501698         0.754961         1.038343
 H        -0.382380        -0.672480         0.640318
 H        -0.264795         0.862567        -0.462501
 H        -0.540431        -0.808637        -1.120499
 H         1.788240        -2.033478         0.807780
 H         2.725435        -2.049983        -0.731419
 H         4.142886        -1.085842         1.869018
 H         4.062554         1.916100        -0.359769
 H         1.906369         1.446061        -1.399624
 H         2.864651         0.066019        -2.106242
 H         3.069103         1.403123         2.046826
