19
Iteration:  3050charge 0 multiplicity 1
 C         0.009288        -0.315654        -0.638629
 C         1.483170        -0.018728        -0.167387
 C         2.250031        -1.344004         0.440036
 C         3.651659        -0.723221         0.936986
 O         4.429979        -0.296470        -0.104804
 C         3.649833         0.964665        -0.250432
 C         2.404109         0.762250        -1.105061
 C         3.014435         0.744603         1.208754
 O         1.609662         0.875529         0.998760
 H        -0.609891        -0.624420         0.199379
 H        -0.487068         0.590503        -1.176234
 H         0.136513        -1.232440        -1.263152
 H         1.694563        -1.744179         1.293121
 H         2.380385        -2.235149        -0.237972
 H         4.069866        -1.294169         1.827441
 H         4.322836         1.760501        -0.494308
 H         1.722854         1.651662        -1.264784
 H         2.685481         0.254185        -2.089937
 H         3.219639         1.546486         1.973671
