19
Iteration:  3903
 C         0.140755        -0.353822        -0.739655
 C         1.536682        -0.007421        -0.113447
 C         2.208340        -1.240470         0.415296
 C         3.549887        -0.703946         0.961162
 O         4.354273        -0.344456        -0.222743
 C         3.648382         0.993745        -0.218589
 C         2.446747         0.736471        -1.082818
 C         3.058732         0.753749         1.236846
 O         1.549681         0.847364         1.110513
 H        -0.435109        -0.366928         0.171401
 H        -0.359992         0.400884        -1.461320
 H         0.324520        -1.400831        -1.154420
 H         1.561661        -1.567351         1.218872
 H         2.323863        -2.062689        -0.285137
 H         4.186283        -1.407606         1.514025
 H         4.330724         1.864283        -0.380454
 H         1.899567         1.674625        -1.351573
 H         2.561492         0.120561        -1.930297
 H         3.382628         1.335153         2.112890
