19
Iteration:  4605charge 0 multiplicity 1
 C         0.069603        -0.285282        -0.667852
 C         1.514219        -0.056693        -0.165273
 C         2.237532        -1.343855         0.409387
 C         3.487930        -0.700597         0.991182
 O         4.328492        -0.325516        -0.219587
 C         3.670751         0.973580        -0.180082
 C         2.489936         0.801333        -1.086821
 C         3.056215         0.799477         1.226292
 O         1.628712         0.823030         1.083820
 H        -0.287778        -1.344399        -0.520998
 H        -0.755235         0.277919        -0.308235
 H         0.110483        -0.233017        -1.780928
 H         1.645634        -1.831753         1.207768
 H         2.483476        -2.049709        -0.413196
 H         4.057777        -1.393625         1.586008
 H         4.336789         1.774226        -0.510368
 H         1.905232         1.758691        -1.401088
 H         2.863939         0.254042        -2.018668
 H         3.324810         1.348255         2.176566
