19
Iteration:   818charge 0 multiplicity 1
 C         0.206139        -0.444527        -0.624079
 C         1.522916        -0.104617        -0.091989
 C         2.243254        -1.343060         0.522724
 C         3.549285        -0.665737         0.885201
 O         4.347597        -0.265373        -0.268360
 C         3.600892         1.013773        -0.271223
 C         2.364131         0.836231        -1.074438
 C         2.989451         0.783901         1.199248
 O         1.623536         0.838499         1.059895
 H        -0.337982        -1.024299         0.127379
 H        -0.365751         0.552196        -0.823087
 H         0.211816        -1.003070        -1.610613
 H         1.747988        -1.762388         1.415144
 H         2.478992        -2.204474        -0.144092
 H         4.181901        -1.214911         1.581337
 H         4.089043         2.046101        -0.473639
 H         1.940126         1.821896        -1.282606
 H         2.716394         0.276216        -1.920774
 H         3.398715         1.207746         2.080002
