19
Iteration:  2352charge 0 multiplicity 1
 C        -0.094022        -0.217637        -0.389576
 C         1.501346        -0.112488        -0.202908
 C         2.365154        -1.353516         0.245691
 C         3.570080        -0.599690         0.960785
 O         4.471470        -0.222537        -0.027747
 C         3.664230         0.996192        -0.270384
 C         2.439211         0.582131        -1.179132
 C         2.981615         0.828250         1.187097
 O         1.588390         0.739105         0.990007
 H        -0.521225        -0.645954         0.530213
 H        -0.409159         0.813921        -0.594307
 H        -0.454167        -0.902602        -1.155779
 H         1.717667        -1.953769         0.926006
 H         2.648592        -1.811374        -0.636436
 H         3.936203        -1.204368         1.848749
 H         4.248219         1.793050        -0.682898
 H         1.908827         1.399002        -1.504954
 H         2.833417        -0.041295        -2.033638
 H         3.321882         1.582814         1.852286
