19
Iteration:    36charge 0 multiplicity 1
 C        -0.118515        -0.229526        -0.284281
 C         1.423189        -0.060814        -0.277086
 C         2.373394        -1.336167         0.212257
 C         3.495986        -0.635206         0.921687
 O         4.518929        -0.140059         0.022368
 C         3.701070         0.964684        -0.217469
 C         2.451409         0.595580        -1.173586
 C         2.976504         0.743518         1.135208
 O         1.595170         0.730479         0.906177
 H        -0.191997        -0.774516         0.669832
 H        -0.606106         0.714229        -0.231186
 H        -0.500424        -0.841731        -1.076746
 H         1.908081        -1.921151         0.918495
 H         2.831472        -2.086337        -0.502590
 H         4.059704        -1.077113         1.813516
 H         4.261438         2.000226        -0.579329
 H         2.115521         1.553277        -1.692869
 H         2.804382        -0.072720        -1.901742
 H         3.171681         1.330237         2.082219
