19
Iteration:  1240
 C         0.131140        -0.401063        -0.602528
 C         1.533226        -0.089270        -0.200010
 C         2.300125        -1.355738         0.439332
 C         3.482480        -0.642296         0.957526
 O         4.392120        -0.259557        -0.225904
 C         3.572224         1.007625        -0.223309
 C         2.367256         0.775196        -1.089432
 C         3.032450         0.854558         1.171868
 O         1.633440         0.744258         1.106527
 H        -0.267810        -1.136852         0.119692
 H        -0.360167         0.628453        -0.657759
 H         0.099294        -0.983974        -1.584397
 H         1.646516        -1.708098         1.351045
 H         2.471672        -2.072845        -0.304140
 H         4.147563        -0.961554         1.774253
 H         4.228652         1.909604        -0.625980
 H         1.792612         1.667471        -1.355633
 H         2.668980         0.379530        -2.042862
 H         3.451193         1.506434         1.956937
