19
Iteration:  2064charge 0 multiplicity 1
 C        -0.110917        -0.153622        -0.401007
 C         1.415813        -0.050173        -0.140000
 C         2.398046        -1.358941         0.258828
 C         3.617911        -0.723084         0.882656
 O         4.555845        -0.091658         0.017357
 C         3.633369         0.999785        -0.290457
 C         2.462496         0.486660        -1.204993
 C         2.955077         0.736467         1.151056
 O         1.492905         0.765921         1.027075
 H        -0.327591        -0.585097         0.531431
 H        -0.584450         0.841697        -0.439003
 H        -0.177488        -0.844995        -1.254124
 H         2.134361        -2.014306         0.995434
 H         2.657782        -1.873346        -0.758757
 H         4.108858        -1.326242         1.642246
 H         4.200776         1.954484        -0.699367
 H         2.034873         1.384802        -1.645637
 H         2.746042        -0.198339        -1.905442
 H         3.278568         1.405779         1.915988
