19
Iteration:  3596
 C         0.273566        -0.344075        -0.648778
 C         1.580378        -0.051555        -0.115067
 C         2.206241        -1.300201         0.425798
 C         3.499830        -0.669943         0.971911
 O         4.281119        -0.382280        -0.206855
 C         3.688829         0.955530        -0.280428
 C         2.350691         0.775639        -1.091197
 C         3.047670         0.855644         1.225092
 O         1.589185         0.836884         1.091660
 H        -0.515080        -0.916976        -0.084747
 H        -0.252534         0.425292        -1.120707
 H         0.538384        -0.969958        -1.533789
 H         1.500388        -1.689115         1.181482
 H         2.549792        -2.072190        -0.313952
 H         4.154090        -1.311342         1.629937
 H         4.351862         1.739505        -0.596741
 H         1.719169         1.772975        -0.966787
 H         2.467746         0.410556        -2.199256
 H         3.108645         1.458884         2.165574
