19
Iteration:   701
 C         0.142484        -0.406113        -0.675633
 C         1.481382        -0.132202        -0.054944
 C         2.305328        -1.367819         0.446086
 C         3.566628        -0.664621         0.999160
 O         4.303363        -0.285853        -0.266464
 C         3.606158         1.000292        -0.268790
 C         2.344847         0.775811        -1.067227
 C         3.098956         0.865310         1.183501
 O         1.617440         0.862900         1.099693
 H        -0.601406        -0.868264        -0.069025
 H        -0.259175         0.415430        -1.228642
 H         0.402165        -1.179955        -1.383656
 H         1.751489        -1.845927         1.224202
 H         2.448067        -2.168574        -0.397789
 H         4.266608        -1.072685         1.673495
 H         4.315525         1.804920        -0.587202
 H         1.845751         1.812631        -1.079665
 H         2.439988         0.448511        -2.131190
 H         3.420416         1.349929         2.067594
