19
Iteration:  4196charge 0 multiplicity 1
 C         0.034218        -0.328708        -0.618233
 C         1.498036        -0.097334        -0.177013
 C         2.267685        -1.362250         0.420463
 C         3.523724        -0.688156         0.987327
 O         4.270172        -0.299324        -0.194523
 C         3.658122         1.003338        -0.180512
 C         2.535255         0.869006        -1.149339
 C         3.025914         0.760472         1.192177
 O         1.662695         0.783458         1.052977
 H        -0.400981        -1.205280        -0.142519
 H        -0.421015         0.700684        -0.343742
 H        -0.071995        -0.373069        -1.787378
 H         1.494829        -1.814361         1.164041
 H         2.652941        -2.240683        -0.189163
 H         4.125751        -1.191601         1.798029
 H         4.241157         1.934697        -0.517402
 H         2.077296         1.789226        -1.391391
 H         2.800220         0.306599        -1.997449
 H         3.373455         1.243310         2.134753
