19
Iteration:  3235
 C        -0.024609        -0.088648        -0.384016
 C         1.577998        -0.183446        -0.222150
 C         2.310807        -1.453747         0.193122
 C         3.481914        -0.626649         0.999989
 O         4.518950        -0.155704        -0.006979
 C         3.623325         0.971967        -0.255683
 C         2.446642         0.548132        -1.150877
 C         2.950617         0.806764         1.171582
 O         1.569683         0.784436         0.955553
 H        -0.406515        -0.294691         0.646290
 H        -0.397957         0.955981        -0.730008
 H        -0.364086        -0.759836        -1.138148
 H         1.848114        -2.306675         0.695855
 H         2.908272        -2.019867        -0.583184
 H         3.759295        -1.242020         1.889535
 H         4.028807         1.919583        -0.472345
 H         1.985477         1.486350        -1.590793
 H         2.813721        -0.071777        -2.007777
 H         3.324311         1.355883         2.052360
