19
Iteration:   355
 C         0.056118        -0.256687        -0.516850
 C         1.468632        -0.089309        -0.194817
 C         2.301979        -1.315166         0.295665
 C         3.571649        -0.679057         0.936650
 O         4.478499        -0.193164        -0.114797
 C         3.623728         0.984600        -0.238867
 C         2.360180         0.709956        -1.118803
 C         2.961225         0.809541         1.148513
 O         1.621070         0.700094         1.093340
 H        -0.469207        -0.740929         0.314520
 H        -0.464259         0.731811        -0.586502
 H        -0.242342        -0.891879        -1.377287
 H         1.713392        -1.983675         1.014965
 H         2.772303        -1.983241        -0.508230
 H         4.197306        -1.157920         1.811187
 H         4.173935         1.847600        -0.580620
 H         1.889569         1.640024        -1.477508
 H         2.721373        -0.007569        -1.924832
 H         3.310026         1.243965         2.082703
