19
Iteration:  2115charge 0 multiplicity 1
 C         0.065138        -0.356510        -0.548691
 C         1.528738        -0.064706        -0.080628
 C         2.312376        -1.333120         0.383057
 C         3.572903        -0.649848         0.953645
 O         4.423209        -0.264559        -0.201130
 C         3.604672         0.958646        -0.259855
 C         2.378649         0.780624        -1.113606
 C         2.981034         0.796313         1.173415
 O         1.585662         0.772592         1.018553
 H        -0.527751        -0.812543         0.268244
 H        -0.239435         0.694797        -0.752294
 H         0.282108        -1.089006        -1.366015
 H         1.697171        -1.783648         1.261515
 H         2.570956        -2.066942        -0.350671
 H         4.066665        -1.112656         1.820788
 H         4.290548         1.826554        -0.465402
 H         1.862679         1.767693        -1.317411
 H         2.562511         0.148052        -2.025994
 H         3.284740         1.495369         1.919414
