19
Iteration:  3643charge 0 multiplicity 1
 C         0.055194        -0.222299        -0.509545
 C         1.499881        -0.092767        -0.172445
 C         2.245295        -1.256265         0.285920
 C         3.516044        -0.724104         0.922698
 O         4.543597        -0.173303        -0.012408
 C         3.657149         0.919496        -0.266031
 C         2.470291         0.613858        -1.173978
 C         2.971534         0.778853         1.159721
 O         1.530867         0.764824         1.039770
 H        -0.441985        -0.929881         0.095324
 H        -0.348598         0.730148        -0.099516
 H        -0.305230        -0.349198        -1.563357
 H         1.736264        -1.577196         1.267112
 H         2.265949        -2.079779        -0.442655
 H         3.972577        -1.400739         1.605660
 H         4.313835         1.797710        -0.492330
 H         2.024491         1.577400        -1.705786
 H         2.734247        -0.094823        -1.912656
 H         3.192579         1.434721         2.018022
