19
Iteration:   315charge 0 multiplicity 1
 C        -0.015183        -0.130905        -0.394926
 C         1.522410        -0.156916        -0.211175
 C         2.333361        -1.417158         0.222863
 C         3.540156        -0.676568         0.882938
 O         4.597162        -0.054110         0.034894
 C         3.586844         0.989150        -0.274126
 C         2.365617         0.551679        -1.154296
 C         2.950679         0.749136         1.139269
 O         1.582895         0.729220         1.049322
 H        -0.426991        -0.553270         0.538470
 H        -0.314534         0.893301        -0.520653
 H        -0.275985        -0.641806        -1.306749
 H         1.711779        -2.015335         0.874259
 H         2.485703        -1.914722        -0.645346
 H         3.929904        -1.358687         1.624694
 H         4.172351         1.966413        -0.605718
 H         1.895058         1.464725        -1.637502
 H         2.570669        -0.167753        -2.022221
 H         3.287060         1.399821         1.994643
