19
Iteration:  4934
 C        -0.060237        -0.170789        -0.543463
 C         1.469375         0.017767        -0.179215
 C         2.236656        -1.291729         0.321985
 C         3.596269        -0.752158         1.023341
 O         4.607053        -0.253489         0.142488
 C         3.644688         0.931572        -0.314243
 C         2.385384         0.543250        -1.262510
 C         2.939104         0.788096         1.125917
 O         1.624709         0.828782         0.979224
 H        -0.737662         0.158693         0.233537
 H        -0.347727         0.598836        -1.364091
 H        -0.410963        -1.204430        -0.710030
 H         1.723501        -1.820029         1.144620
 H         2.415518        -1.921976        -0.554992
 H         4.065722        -1.181403         1.938940
 H         4.319509         1.741942        -0.771574
 H         1.981565         1.413252        -1.777352
 H         2.780582        -0.311893        -1.905550
 H         3.289859         1.306259         1.926742
