19
Iteration:  2007charge 0 multiplicity 1
 C         0.201538        -0.492072        -0.646546
 C         1.498357        -0.125855        -0.172424
 C         2.297230        -1.352477         0.462456
 C         3.602909        -0.611677         0.999815
 O         4.247468        -0.335808        -0.318705
 C         3.627230         0.984936        -0.272965
 C         2.377842         0.872408        -1.080139
 C         3.032881         0.824181         1.251619
 O         1.559952         0.870703         1.144442
 H        -0.491792        -1.119602        -0.016335
 H        -0.241101         0.470919        -1.093853
 H         0.227557        -0.963424        -1.695537
 H         1.864234        -1.769045         1.427520
 H         2.385367        -2.233374        -0.139019
 H         4.223233        -1.030702         1.834147
 H         4.652134         1.589558        -0.657589
 H         2.026077         1.895657        -1.110443
 H         2.653913         0.695125        -2.118448
 H         3.430857         1.486964         2.018917
