19
Iteration:  3570charge 0 multiplicity 1
 C         0.028869        -0.361464        -0.617647
 C         1.523614        -0.062124        -0.214815
 C         2.255262        -1.312520         0.448656
 C         3.513328        -0.739180         0.960127
 O         4.380318        -0.260553        -0.154115
 C         3.654800         0.997641        -0.178758
 C         2.455360         0.799601        -1.141318
 C         3.076248         0.749024         1.108977
 O         1.603274         0.831669         1.118145
 H        -0.792563        -0.500660         0.128319
 H        -0.307803         0.528610        -1.278200
 H        -0.073008        -1.222820        -1.291915
 H         1.619052        -1.624454         1.271057
 H         2.418707        -2.217558        -0.144533
 H         4.130255        -1.290251         1.705849
 H         4.271038         1.907724        -0.385840
 H         2.020359         1.698138        -1.522187
 H         2.859615         0.175883        -2.108627
 H         3.343525         1.331727         1.984563
