19
Iteration:  1927charge 0 multiplicity 1
 C        -0.008150        -0.134567        -0.288688
 C         1.532573        -0.185463        -0.245302
 C         2.413998        -1.435869         0.194556
 C         3.550122        -0.652573         0.989389
 O         4.505675        -0.128065         0.084363
 C         3.532721         1.041822        -0.324353
 C         2.437771         0.563606        -1.294742
 C         2.929201         0.793099         1.137447
 O         1.571091         0.728053         0.978581
 H        -0.506817        -0.437127         0.703577
 H        -0.293771         0.929373        -0.351030
 H        -0.502736        -0.753023        -1.052587
 H         1.825512        -2.114464         0.889139
 H         2.802102        -1.967525        -0.630593
 H         4.058391        -1.242607         1.769380
 H         4.053780         1.976035        -0.456620
 H         1.933959         1.492223        -1.518467
 H         2.802136         0.093882        -2.256338
 H         3.258564         1.315580         2.038396
