19
Iteration:  2869
 C         0.141675        -0.393541        -0.748546
 C         1.461606        -0.054777        -0.005210
 C         2.211128        -1.297954         0.491487
 C         3.563654        -0.674092         0.929001
 O         4.301931        -0.363169        -0.267416
 C         3.629775         1.009008        -0.213443
 C         2.435883         0.754668        -1.070141
 C         3.089906         0.774242         1.221579
 O         1.607787         0.884213         1.061814
 H        -0.691706        -0.617920        -0.003141
 H        -0.042272         0.442848        -1.410193
 H         0.363202        -1.260572        -1.304531
 H         1.683957        -1.798926         1.288069
 H         2.410157        -1.883263        -0.462855
 H         4.081507        -1.274380         1.695877
 H         4.333412         1.899448        -0.412167
 H         1.834385         1.761680        -1.261089
 H         2.824290         0.422802        -2.066875
 H         3.553294         1.334414         2.134061
