19
Iteration:  3736charge 0 multiplicity 1
 C         0.112839        -0.416186        -0.803044
 C         1.507768         0.011080        -0.142994
 C         2.256398        -1.313529         0.469162
 C         3.538073        -0.732043         0.975307
 O         4.297091        -0.341022        -0.297202
 C         3.630192         0.992488        -0.161850
 C         2.421059         0.775642        -1.056440
 C         3.103769         0.756718         1.292166
 O         1.611996         0.923612         1.074936
 H        -0.592655        -0.591367         0.153927
 H        -0.497602         0.294320        -1.357282
 H         0.370976        -1.395274        -1.309043
 H         1.716419        -1.414321         1.397131
 H         2.296460        -2.220071        -0.183257
 H         4.131695        -1.323637         1.758317
 H         4.149488         1.884065        -0.439066
 H         1.933438         1.665748        -1.247563
 H         2.896759         0.414611        -2.113520
 H         3.520679         1.252096         2.188368
