19
Iteration:  1794
 C        -0.035389        -0.267210        -0.373676
 C         1.492121        -0.041358        -0.171358
 C         2.335009        -1.410961         0.220448
 C         3.503298        -0.686183         0.939732
 O         4.599768        -0.075172         0.034454
 C         3.609517         1.010199        -0.347156
 C         2.452246         0.584822        -1.236263
 C         2.975184         0.740395         1.134416
 O         1.551482         0.765981         1.082099
 H        -0.559927        -0.646022         0.489841
 H        -0.498564         0.740461        -0.546558
 H        -0.184759        -0.995456        -1.198358
 H         1.700750        -1.934675         0.922150
 H         2.421193        -2.003359        -0.639687
 H         3.914432        -1.280203         1.771622
 H         4.024298         1.953622        -0.540963
 H         2.003410         1.384471        -1.776631
 H         2.662158        -0.119043        -2.010830
 H         3.436086         1.470052         1.839115
