19
Iteration:   104
 C         0.127866        -0.387939        -0.713304
 C         1.531520        -0.057348        -0.171697
 C         2.324916        -1.358515         0.643832
 C         3.584714        -0.650903         0.913090
 O         4.234815        -0.267466        -0.312937
 C         3.634702         0.978164        -0.201021
 C         2.461579         0.809635        -1.131269
 C         3.025696         0.802623         1.153886
 O         1.561179         0.762567         1.159560
 H        -0.539552        -0.811188         0.018217
 H        -0.428895         0.514700        -1.021789
 H         0.083267        -1.114712        -1.531906
 H         1.728636        -1.535281         1.507213
 H         2.508260        -2.151044        -0.072731
 H         4.270447        -1.104526         1.759460
 H         4.601927         1.769556        -0.468975
 H         1.895733         1.792366        -1.255319
 H         2.718388         0.507365        -2.213007
 H         3.442029         1.354273         1.972212
