19
Iteration:  4708charge 0 multiplicity 1
 C         0.085419        -0.233306        -0.610728
 C         1.535993        -0.084167        -0.159445
 C         2.255991        -1.379236         0.477940
 C         3.429195        -0.693711         0.956809
 O         4.370611        -0.325360        -0.180863
 C         3.698275         1.000164        -0.182029
 C         2.505033         0.844328        -1.152927
 C         3.044580         0.751487         1.151391
 O         1.560669         0.744259         1.023365
 H         0.097748        -0.853695        -1.547344
 H        -0.730458        -0.548513         0.150152
 H        -0.313208         0.760462        -0.956447
 H         1.658461        -1.672696         1.393001
 H         2.498644        -2.249966        -0.157040
 H         4.147613        -1.085339         1.783449
 H         4.449996         1.764071        -0.455742
 H         1.941272         1.730954        -1.264718
 H         2.853317         0.435808        -2.081446
 H         3.156036         1.317780         2.043943
