19
Iteration:  3085
 C         0.026726        -0.099331        -0.376303
 C         1.516922        -0.090935        -0.220905
 C         2.313897        -1.401944         0.203704
 C         3.500833        -0.660128         1.026535
 O         4.454424        -0.215582         0.074462
 C         3.630286         0.984462        -0.324667
 C         2.460270         0.569472        -1.245269
 C         2.914582         0.841762         1.146565
 O         1.616920         0.705114         1.005946
 H        -0.378249        -0.758758         0.456495
 H        -0.570559         0.841727        -0.333652
 H        -0.299624        -0.492885        -1.305395
 H         1.724833        -2.064707         0.819831
 H         2.789360        -1.869808        -0.733600
 H         3.918584        -1.086012         1.996325
 H         4.398348         1.774843        -0.644105
 H         1.995035         1.431880        -1.822896
 H         2.805978        -0.056902        -1.972630
 H         3.428031         1.499475         1.904494
