19
Iteration:  3777charge 0 multiplicity 1
 C         0.015365        -0.237206        -0.612833
 C         1.527898        -0.089363        -0.231926
 C         2.292873        -1.341218         0.332274
 C         3.447234        -0.650568         1.054216
 O         4.440599        -0.252313        -0.071155
 C         3.633630         0.936800        -0.298549
 C         2.394489         0.704222        -1.084070
 C         3.065502         0.776164         1.194274
 O         1.655696         0.781649         1.060742
 H        -0.520550        -0.865804         0.143429
 H        -0.326893         0.802176        -0.773606
 H        -0.070650        -0.683618        -1.575971
 H         1.555015        -1.830550         1.055169
 H         2.604515        -2.257071        -0.269189
 H         3.932434        -1.270821         1.843096
 H         4.271757         1.758265        -0.695962
 H         1.850339         1.679677        -1.359085
 H         2.501920         0.248531        -2.133774
 H         3.457238         1.536843         1.859744
