19
Iteration:  1230charge 0 multiplicity 1
 C         0.143718        -0.335519        -0.523469
 C         1.576241        -0.097635        -0.082416
 C         2.288877        -1.321210         0.366801
 C         3.574234        -0.617036         0.993480
 O         4.399289        -0.216179        -0.158952
 C         3.610440         0.994835        -0.310530
 C         2.377487         0.761364        -1.141397
 C         2.986705         0.784418         1.109017
 O         1.561565         0.709221         1.049080
 H        -0.383576        -0.925649         0.240846
 H        -0.523909         0.581044        -0.537715
 H         0.013771        -0.806797        -1.531167
 H         1.625215        -1.838857         1.155540
 H         2.648864        -2.053098        -0.256892
 H         3.952868        -1.287617         1.791522
 H         4.226030         1.942549        -0.507576
 H         1.797762         1.658041        -1.340168
 H         2.650245         0.191957        -2.005382
 H         3.244386         1.393453         1.971287
