19
Iteration:  4474charge 0 multiplicity 1
 C         0.073851        -0.241272        -0.693237
 C         1.518249        -0.013065        -0.098669
 C         2.290520        -1.363840         0.378138
 C         3.523008        -0.707939         0.968130
 O         4.327561        -0.305789        -0.135858
 C         3.628751         1.012670        -0.252394
 C         2.459604         0.795622        -1.088910
 C         3.052610         0.707509         1.192115
 O         1.592938         0.781913         1.081567
 H        -0.632593        -0.098410         0.153752
 H        -0.012696         0.479113        -1.462244
 H        -0.173325        -1.240659        -1.047099
 H         1.760638        -1.936929         1.157498
 H         2.586769        -1.986476        -0.470313
 H         4.098481        -1.317979         1.616941
 H         4.358834         1.762176        -0.595671
 H         2.079074         1.711914        -1.294416
 H         2.649655         0.209988        -1.972185
 H         3.309779         1.296928         2.086990
