19
Iteration:  2343
 C         0.004703        -0.238603        -0.454275
 C         1.505377        -0.078740        -0.142514
 C         2.351287        -1.250957         0.318708
 C         3.511945        -0.663403         0.948840
 O         4.480568        -0.207446        -0.060560
 C         3.615670         0.950348        -0.297891
 C         2.398431         0.621722        -1.150005
 C         2.992673         0.792984         1.142455
 O         1.612544         0.740971         1.003053
 H        -0.465190        -0.606445         0.439529
 H        -0.650758         0.642719        -0.604904
 H        -0.189754        -0.963407        -1.293692
 H         1.748736        -1.922474         1.019286
 H         2.660140        -1.906326        -0.454995
 H         4.013802        -1.273827         1.742444
 H         4.226940         1.849970        -0.479658
 H         1.966404         1.483381        -1.691856
 H         2.665065        -0.135136        -1.902676
 H         3.293373         1.471322         1.925737
