19
Iteration:  1059charge 0 multiplicity 1
 C        -0.003410        -0.173344        -0.321773
 C         1.507653        -0.130907        -0.139347
 C         2.377207        -1.328906         0.225945
 C         3.529534        -0.690491         0.952618
 O         4.517500        -0.103344        -0.009175
 C         3.552238         0.996861        -0.280074
 C         2.384041         0.592140        -1.235173
 C         2.937851         0.773024         1.159724
 O         1.604449         0.665507         0.930738
 H        -0.487961        -0.613938         0.559292
 H        -0.473635         0.820269        -0.397371
 H        -0.158184        -0.691170        -1.265923
 H         1.786924        -1.883358         0.940525
 H         2.964729        -2.061834        -0.500235
 H         4.094140        -1.063306         1.837882
 H         4.120523         1.840672        -0.498328
 H         1.988655         1.581949        -1.610965
 H         2.842057         0.029857        -2.075675
 H         3.265467         1.357791         2.082741
