19
Iteration:  3691charge 0 multiplicity 1
 C         0.021300        -0.151246        -0.514085
 C         1.496352        -0.090004        -0.221610
 C         2.356484        -1.316817         0.265574
 C         3.564359        -0.646246         0.956811
 O         4.497395        -0.286145        -0.003520
 C         3.606091         0.914080        -0.240751
 C         2.424656         0.644023        -1.135790
 C         2.962711         0.778856         1.157866
 O         1.537963         0.778714         1.033103
 H        -0.570766        -0.404857         0.443862
 H        -0.446987         0.823909        -0.821081
 H        -0.207368        -0.920982        -1.252646
 H         1.777781        -1.963624         0.922617
 H         2.774514        -1.811283        -0.628146
 H         4.053092        -1.187668         1.817082
 H         4.272701         1.733189        -0.537261
 H         2.017576         1.603774        -1.352340
 H         2.591718         0.012553        -2.089663
 H         3.305191         1.413302         1.973854
