19
Iteration:  4078
 C        -0.082991        -0.184738        -0.506787
 C         1.475438        -0.088548        -0.185209
 C         2.254899        -1.317845         0.269521
 C         3.503931        -0.693408         0.894409
 O         4.558018        -0.198457        -0.017597
 C         3.695774         0.986633        -0.242846
 C         2.521065         0.631891        -1.122567
 C         2.968608         0.749024         1.132295
 O         1.564943         0.735165         1.049838
 H        -0.519571        -0.248386         0.442153
 H        -0.495962         0.688687        -1.049619
 H        -0.341913        -1.092763        -1.012830
 H         1.802735        -1.909318         1.086866
 H         2.404533        -1.924670        -0.630276
 H         4.007186        -1.280213         1.695576
 H         4.256005         1.950076        -0.427569
 H         2.002879         1.671259        -1.413477
 H         2.920084         0.177944        -2.015854
 H         3.275690         1.156531         2.107061
