19
Iteration:  4878charge 0 multiplicity 1
 C         0.133094        -0.335220        -0.652194
 C         1.573803        -0.032283        -0.177794
 C         2.239340        -1.258061         0.505744
 C         3.457534        -0.626419         0.997222
 O         4.333573        -0.399128        -0.139963
 C         3.728970         0.920858        -0.227597
 C         2.422613         0.767879        -1.160545
 C         3.044110         0.813293         1.233862
 O         1.586503         0.814103         0.954132
 H        -0.549857         0.334950        -0.163337
 H        -0.143718         0.029036        -1.734010
 H        -0.348563        -1.315957        -0.469730
 H         1.655536        -1.510325         1.400955
 H         2.415209        -2.264783         0.076633
 H         3.928233        -1.100599         1.863743
 H         4.516901         1.723762        -0.557820
 H         1.822000         1.685817        -1.428210
 H         2.673998         0.249798        -2.192623
 H         3.431560         1.299311         2.112861
