19
Iteration:  4550charge 0 multiplicity 1
 C         0.022695        -0.193479        -0.547155
 C         1.555496        -0.113316        -0.203459
 C         2.285871        -1.304149         0.278909
 C         3.529464        -0.674856         0.949858
 O         4.380595        -0.273130        -0.091988
 C         3.669029         0.983487        -0.195827
 C         2.450610         0.723127        -1.065653
 C         2.999306         0.735065         1.198853
 O         1.596102         0.755654         1.014136
 H        -0.559904        -0.314383         0.425555
 H        -0.284815         0.665494        -1.102167
 H        -0.262797        -0.962976        -1.287265
 H         1.733732        -1.874916         1.035551
 H         2.454044        -1.982264        -0.557584
 H         4.101980        -1.152372         1.687197
 H         4.339224         1.762746        -0.575276
 H         1.911002         1.637237        -1.371642
 H         2.782726         0.200137        -1.994841
 H         3.323965         1.202202         2.164354
