19
Iteration:   897
 C        -0.022733        -0.172762        -0.339079
 C         1.512929        -0.199267        -0.237088
 C         2.336122        -1.321018         0.254289
 C         3.565799        -0.726318         0.925483
 O         4.501202        -0.062079        -0.009909
 C         3.575866         1.042375        -0.211649
 C         2.420005         0.549790        -1.194749
 C         2.996684         0.717615         1.148074
 O         1.558911         0.730066         0.950357
 H        -0.386649        -0.515637         0.683312
 H        -0.390213         0.914587        -0.442344
 H        -0.462715        -0.836496        -1.143087
 H         1.947266        -1.866147         1.099466
 H         2.708779        -2.050483        -0.604818
 H         3.919061        -1.123018         1.811975
 H         4.005163         2.090363        -0.719236
 H         1.978900         1.435605        -1.644145
 H         2.886567         0.106920        -2.082506
 H         3.531747         1.244604         2.011851
