19
Iteration:  3503charge 0 multiplicity 1
 C        -0.023912        -0.204245        -0.471982
 C         1.460414        -0.101006        -0.191981
 C         2.298799        -1.318966         0.289837
 C         3.519085        -0.652209         1.014129
 O         4.464781        -0.202219        -0.029353
 C         3.698807         0.952775        -0.283504
 C         2.439160         0.633478        -1.103682
 C         2.984712         0.797088         1.137348
 O         1.608509         0.734419         0.950316
 H        -0.536693        -0.754267         0.327815
 H        -0.448490         0.877158        -0.486592
 H        -0.270828        -0.709091        -1.468614
 H         1.616207        -1.912540         0.921923
 H         2.786627        -1.994674        -0.405598
 H         4.005937        -1.177928         1.819820
 H         4.344794         1.829387        -0.579267
 H         1.957475         1.561144        -1.445296
 H         2.858192        -0.025941        -2.008492
 H         3.306171         1.282601         2.069204
