19
Iteration:  1317
 C        -0.058093        -0.211250        -0.395927
 C         1.503940        -0.130106        -0.157146
 C         2.383251        -1.399800         0.264142
 C         3.583643        -0.597732         1.005303
 O         4.521596        -0.179363        -0.082578
 C         3.568548         0.997727        -0.208122
 C         2.385596         0.663212        -1.179349
 C         2.969063         0.758292         1.125455
 O         1.575246         0.720451         0.945544
 H        -0.481119        -0.525588         0.581701
 H        -0.451180         0.838996        -0.628611
 H        -0.120544        -0.975816        -1.233024
 H         1.765501        -2.049223         1.028329
 H         2.859856        -1.973382        -0.473549
 H         4.219241        -1.143287         1.716113
 H         4.200651         1.974028        -0.409320
 H         1.818570         1.532105        -1.592650
 H         2.689588         0.084011        -2.032747
 H         3.234925         1.389556         1.944355
