19
Iteration:  4575
 C         0.164626        -0.242936        -0.741427
 C         1.479769        -0.041338        -0.059915
 C         2.175119        -1.326417         0.426212
 C         3.516062        -0.781175         0.974624
 O         4.488115        -0.283996        -0.129806
 C         3.583723         0.960452        -0.293327
 C         2.337034         0.829099        -1.087698
 C         3.077123         0.734266         1.130801
 O         1.599491         0.802315         1.157455
 H        -0.452948        -0.956731        -0.219503
 H        -0.592733         0.560158        -1.015817
 H         0.480456        -0.522452        -1.776507
 H         1.697655        -1.894239         1.254186
 H         2.289277        -2.124284        -0.356034
 H         4.244934        -1.299921         1.678729
 H         4.217403         1.817385        -0.600266
 H         1.918630         1.700372        -1.376076
 H         2.602523         0.315233        -2.027653
 H         3.506631         1.302315         1.977691
