19
Iteration:   986
 C         0.176124        -0.494382        -0.625306
 C         1.517829        -0.125478        -0.219110
 C         2.268770        -1.276998         0.496731
 C         3.504059        -0.623120         0.944854
 O         4.313414        -0.293227        -0.327419
 C         3.584908         1.038286        -0.236524
 C         2.387543         0.837755        -1.103764
 C         3.032316         0.824273         1.220441
 O         1.647499         0.771582         1.175322
 H        -0.441963        -1.009629         0.224154
 H        -0.269141         0.406436        -1.069708
 H         0.275435        -1.075421        -1.571948
 H         1.680910        -1.641941         1.397409
 H         2.306408        -2.094302        -0.267957
 H         4.027095        -1.123596         1.728969
 H         4.465663         1.861237        -0.378111
 H         1.926627         1.805879        -1.201708
 H         2.823595         0.465012        -2.055614
 H         3.482679         1.362004         2.060544
