19
Iteration:  4470
 C         0.074028        -0.246281        -0.717472
 C         1.569913        -0.052107        -0.140806
 C         2.277311        -1.355017         0.416757
 C         3.490054        -0.715610         0.973311
 O         4.288563        -0.317841        -0.145647
 C         3.615029         1.029986        -0.249090
 C         2.449501         0.810190        -1.096674
 C         3.057869         0.718916         1.229900
 O         1.632144         0.768700         1.077493
 H        -0.579817        -0.068400         0.185545
 H        -0.030888         0.634622        -1.436981
 H        -0.101947        -1.283511        -1.064368
 H         1.788883        -1.900376         1.234940
 H         2.645574        -1.964218        -0.434063
 H         4.191250        -1.327263         1.608998
 H         4.307872         1.835419        -0.568667
 H         1.909875         1.870761        -1.345359
 H         2.635392         0.176458        -1.972908
 H         3.408689         1.302533         2.058056
