19
Iteration:  2657
 C        -0.045775        -0.075470        -0.364276
 C         1.429103        -0.132164        -0.218469
 C         2.319347        -1.364011         0.195966
 C         3.523588        -0.661342         0.929548
 O         4.595954        -0.117877         0.016370
 C         3.622876         0.949332        -0.240872
 C         2.438235         0.488743        -1.206679
 C         2.963045         0.791325         1.135786
 O         1.577767         0.740435         1.041780
 H        -0.482534        -0.468064         0.515589
 H        -0.271257         0.943617        -0.589433
 H        -0.292824        -0.778622        -1.179259
 H         1.810473        -1.913250         1.043962
 H         2.562607        -1.988774        -0.622843
 H         3.953639        -1.467490         1.583287
 H         3.992001         1.912027        -0.550941
 H         2.068622         1.404401        -1.705956
 H         2.835741        -0.274056        -1.982826
 H         3.357880         1.488528         1.952296
