19
Iteration:   668charge 0 multiplicity 1
 C         0.134253        -0.379974        -0.634954
 C         1.478111        -0.069155        -0.100000
 C         2.246178        -1.286734         0.434287
 C         3.601861        -0.670528         0.953018
 O         4.383678        -0.231012        -0.197689
 C         3.577889         0.981776        -0.300370
 C         2.325508         0.707614        -1.149708
 C         3.070744         0.860952         1.178805
 O         1.621513         0.754898         1.161482
 H        -0.538474        -0.960102        -0.059721
 H        -0.336784         0.508534        -1.024834
 H         0.462225        -0.927745        -1.510707
 H         1.706555        -1.617827         1.276765
 H         2.284802        -2.258490        -0.298193
 H         4.131597        -1.202498         1.718205
 H         4.308545         1.789294        -0.604789
 H         1.995855         1.823030        -1.250824
 H         2.488667         0.123612        -2.089184
 H         3.512472         1.388671         2.016613
