19
Iteration:  2031charge 0 multiplicity 1
 C         0.134890        -0.339920        -0.561693
 C         1.523596        -0.061334        -0.101818
 C         2.252699        -1.291974         0.416561
 C         3.542268        -0.653667         0.980886
 O         4.400154        -0.262614        -0.153890
 C         3.559166         1.066958        -0.264043
 C         2.353182         0.730389        -1.114509
 C         3.074341         0.782378         1.136655
 O         1.626417         0.716915         1.016000
 H        -0.336482        -0.958241         0.154967
 H        -0.532275         0.464774        -0.893472
 H         0.177132        -0.966987        -1.469409
 H         1.740622        -1.795692         1.171163
 H         2.516631        -2.066843        -0.384939
 H         3.979348        -1.208569         1.812660
 H         4.363598         1.828352        -0.492523
 H         1.731377         1.624746        -1.264916
 H         2.560892         0.323952        -2.045640
 H         3.408509         1.466442         1.877256
