19
Iteration:  1444charge 0 multiplicity 1
 C         0.093840        -0.402481        -0.560074
 C         1.502682        -0.100389        -0.108232
 C         2.253798        -1.326841         0.422534
 C         3.557355        -0.679380         0.871855
 O         4.480210        -0.184248        -0.152975
 C         3.603198         0.994993        -0.275173
 C         2.336886         0.728680        -1.097165
 C         3.054476         0.761223         1.169657
 O         1.557956         0.849623         1.073666
 H        -0.531663        -0.848821         0.208683
 H        -0.267098         0.553120        -0.905814
 H         0.244632        -1.084121        -1.413276
 H         1.694929        -1.988633         1.096418
 H         2.541513        -1.935755        -0.482877
 H         4.144987        -1.259206         1.672130
 H         4.211881         1.884537        -0.474928
 H         1.805563         1.665252        -1.440383
 H         2.702103        -0.000042        -1.857336
 H         3.330163         1.437888         1.950543
