19
Iteration:  3851charge 0 multiplicity 1
 C         0.071162        -0.257486        -0.565449
 C         1.509195        -0.064815        -0.149613
 C         2.308177        -1.300662         0.377397
 C         3.500165        -0.660766         0.968340
 O         4.430649        -0.311204        -0.102882
 C         3.660174         0.885570        -0.230859
 C         2.449325         0.741327        -1.095625
 C         2.956458         0.808933         1.152487
 O         1.581771         0.790570         0.990249
 H        -0.618436        -0.726755         0.145127
 H        -0.385859         0.798279        -0.673717
 H         0.128622        -0.715929        -1.579690
 H         1.689120        -1.705210         1.198105
 H         2.405834        -2.186242        -0.264020
 H         4.130471        -1.274560         1.603211
 H         4.319493         1.710069        -0.629797
 H         2.097626         1.781421        -1.382455
 H         2.685778         0.283808        -2.009629
 H         3.208397         1.311184         2.078467
