19
Iteration:  3291
 C         0.096150        -0.444756        -0.708614
 C         1.532898        -0.015085        -0.044458
 C         2.138366        -1.292096         0.443488
 C         3.542918        -0.737376         0.906588
 O         4.357645        -0.272364        -0.169811
 C         3.667011         1.041420        -0.218884
 C         2.410499         0.702904        -1.057140
 C         3.092803         0.822788         1.180466
 O         1.643233         0.866069         1.041508
 H        -0.450633        -1.386805        -0.330733
 H        -0.543980         0.450639        -0.652336
 H         0.268425        -0.751317        -1.733009
 H         1.632342        -1.690482         1.307942
 H         2.266103        -1.948142        -0.456047
 H         3.998224        -1.336525         1.720969
 H         4.286582         1.918771        -0.383618
 H         1.892708         1.683830        -1.453381
 H         2.685789         0.057690        -1.828452
 H         3.499014         1.348836         2.009522
