19
Iteration:  2295
 C         0.155795        -0.437999        -0.692659
 C         1.494003        -0.005528        -0.109054
 C         2.315798        -1.310937         0.572359
 C         3.562557        -0.606855         1.020156
 O         4.279953        -0.339252        -0.332419
 C         3.641600         0.948018        -0.234177
 C         2.327553         0.820443        -1.071998
 C         3.101388         0.781726         1.189947
 O         1.601245         0.797069         1.066486
 H        -0.705976        -0.939886        -0.166131
 H        -0.339553         0.412716        -1.156952
 H         0.467695        -0.935460        -1.573473
 H         1.588986        -1.596387         1.281265
 H         2.510768        -2.241846        -0.051069
 H         4.157805        -1.032246         1.878626
 H         4.271790         1.768594        -0.588916
 H         1.956440         1.789097        -1.213730
 H         2.615029         0.456526        -2.073424
 H         3.504608         1.498875         1.986324
