19
Iteration:  4623
 C         0.120744        -0.253528        -0.528910
 C         1.547439        -0.020802        -0.180230
 C         2.259445        -1.361060         0.333139
 C         3.505815        -0.771397         0.987767
 O         4.364379        -0.308063        -0.060084
 C         3.652030         1.016269        -0.221261
 C         2.456893         0.812691        -1.184808
 C         2.983921         0.694195         1.161354
 O         1.593872         0.793830         0.960904
 H        -0.279122        -1.212262        -0.168279
 H        -0.384465         0.372580         0.210675
 H        -0.260002         0.124104        -1.449933
 H         1.570388        -1.861959         1.003127
 H         2.555356        -2.124862        -0.365206
 H         4.095118        -1.005929         1.844511
 H         4.340581         1.856920        -0.141948
 H         2.046308         1.819464        -1.465061
 H         2.650706         0.321904        -2.109121
 H         3.332440         1.310286         1.981286
