19
Iteration:  3275charge 0 multiplicity 1
 C         0.053238        -0.296412        -0.600082
 C         1.410061        -0.069057        -0.178206
 C         2.273950        -1.302686         0.376686
 C         3.491189        -0.649441         0.979558
 O         4.544408        -0.256725        -0.165289
 C         3.683363         0.905967        -0.254145
 C         2.435340         0.702875        -1.106508
 C         2.991607         0.791626         1.187936
 O         1.559267         0.819475         1.089068
 H        -0.320555        -1.057765         0.022895
 H        -0.662619         0.531320        -0.570611
 H         0.054054        -0.648138        -1.667075
 H         1.623056        -1.644912         1.249025
 H         2.547591        -2.123072        -0.292922
 H         4.106150        -1.171845         1.703579
 H         4.314438         1.781121        -0.580694
 H         1.953422         1.577220        -1.361587
 H         2.694214         0.135009        -2.077731
 H         3.283926         1.398464         2.095704
