19
Iteration:  4872charge 0 multiplicity 1
 C         0.115769        -0.343718        -0.692496
 C         1.529586        -0.058991        -0.165947
 C         2.218380        -1.263178         0.526883
 C         3.489360        -0.658152         0.988966
 O         4.328345        -0.397517        -0.155745
 C         3.757362         0.918287        -0.199443
 C         2.463805         0.762825        -1.154665
 C         3.027971         0.839798         1.167472
 O         1.611773         0.842533         1.001158
 H        -0.557144         0.334225        -0.108341
 H        -0.018133        -0.224180        -1.742118
 H        -0.207308        -1.372018        -0.505705
 H         1.538865        -1.436130         1.395553
 H         2.272110        -2.171296        -0.082374
 H         3.970165        -1.077329         1.909837
 H         4.284749         1.747993        -0.569758
 H         1.902699         1.749326        -1.262467
 H         2.560589         0.382554        -2.151892
 H         3.303582         1.354682         2.100914
