19
Iteration:   482charge 0 multiplicity 1
 C        -0.001961        -0.211106        -0.311522
 C         1.475599        -0.112256        -0.217225
 C         2.338242        -1.340551         0.224218
 C         3.467240        -0.689187         0.903056
 O         4.544948        -0.145124         0.027809
 C         3.617622         1.066512        -0.258543
 C         2.448016         0.572377        -1.257323
 C         2.924018         0.778139         1.135813
 O         1.622485         0.708642         1.026379
 H        -0.402775        -0.660336         0.570344
 H        -0.465714         0.792542        -0.410883
 H        -0.361704        -0.717887        -1.222998
 H         1.834033        -1.879646         0.971110
 H         2.620837        -2.105057        -0.587092
 H         3.872340        -1.273172         1.678002
 H         4.169313         1.988994        -0.478262
 H         1.883901         1.439955        -1.733265
 H         2.837847         0.015624        -2.078852
 H         3.427316         1.389961         1.967943
