19
Iteration:  3577charge 0 multiplicity 1
 C         0.115456        -0.373458        -0.666478
 C         1.510643        -0.010127        -0.172880
 C         2.259160        -1.287948         0.499941
 C         3.530001        -0.717596         0.975912
 O         4.333066        -0.293475        -0.194184
 C         3.647383         0.977035        -0.240505
 C         2.443294         0.840640        -1.147167
 C         3.022529         0.729627         1.186581
 O         1.615166         0.777289         1.080553
 H        -0.548910        -0.509786         0.159558
 H        -0.339413         0.461680        -1.197282
 H         0.078543        -1.251915        -1.360642
 H         1.606309        -1.501544         1.387196
 H         2.356803        -2.070212        -0.253505
 H         4.006659        -1.164512         1.817756
 H         4.264933         1.853622        -0.505869
 H         2.055098         1.851066        -1.400976
 H         2.730886         0.190857        -1.844184
 H         3.589474         1.273820         1.952902
