19
Iteration:  2660charge 0 multiplicity 1
 C        -0.049952        -0.086189        -0.370900
 C         1.437122        -0.132630        -0.215298
 C         2.302182        -1.359483         0.197599
 C         3.560159        -0.693194         0.921408
 O         4.594734        -0.100811         0.049387
 C         3.623335         0.926511        -0.242966
 C         2.418262         0.492885        -1.226937
 C         2.967443         0.797935         1.134027
 O         1.579113         0.754979         1.044592
 H        -0.470921        -0.455192         0.538357
 H        -0.327400         0.972712        -0.693265
 H        -0.394634        -0.757277        -1.190349
 H         1.786479        -1.849786         0.996867
 H         2.562948        -2.051918        -0.628473
 H         4.073586        -1.480228         1.555242
 H         3.958266         1.997261        -0.450033
 H         2.012384         1.421632        -1.780175
 H         2.782794        -0.245458        -1.895645
 H         3.451949         1.407486         1.848585
