19
Iteration:  4780charge 0 multiplicity 1
 C         0.020820        -0.118910        -0.531075
 C         1.481067        -0.094103        -0.247335
 C         2.274875        -1.268796         0.310822
 C         3.528525        -0.743873         0.992607
 O         4.528898        -0.225322        -0.007913
 C         3.596049         0.898114        -0.200194
 C         2.422590         0.570315        -1.154486
 C         3.037107         0.805531         1.206077
 O         1.564013         0.785049         0.943564
 H        -0.269961         0.431956        -1.402769
 H        -0.519022        -1.087284        -0.612168
 H        -0.485733         0.313889         0.345965
 H         1.711267        -1.798766         1.087481
 H         2.444429        -2.076866        -0.425045
 H         4.015181        -1.411141         1.700990
 H         4.211666         1.794150        -0.404278
 H         2.198106         1.621951        -1.577068
 H         2.827024         0.045931        -2.120622
 H         3.366031         1.403785         2.083097
