19
Iteration:  3448charge 0 multiplicity 1
 C         0.173506        -0.406407        -0.745401
 C         1.466530        -0.036105        -0.054033
 C         2.209611        -1.290202         0.457160
 C         3.529496        -0.619231         0.960741
 O         4.330275        -0.421504        -0.219993
 C         3.637807         0.974170        -0.223375
 C         2.400567         0.771192        -1.070240
 C         3.067808         0.923915         1.149624
 O         1.637658         0.791947         1.131156
 H        -0.474460        -1.115006        -0.288731
 H        -0.571826         0.416777        -0.914612
 H         0.316125        -0.844216        -1.779987
 H         1.611040        -1.849144         1.162170
 H         2.554591        -2.012672        -0.250603
 H         4.005522        -1.042197         1.814488
 H         4.370959         1.818200        -0.423173
 H         1.922862         1.756342        -1.290530
 H         2.766438         0.428648        -2.130336
 H         3.500479         1.479394         1.997121
