19
Iteration:  1924charge 0 multiplicity 1
 C         0.018841        -0.151179        -0.289845
 C         1.509068        -0.204181        -0.255782
 C         2.392242        -1.412003         0.233408
 C         3.546194        -0.648320         0.969485
 O         4.511475        -0.124246         0.081049
 C         3.532524         1.030831        -0.283961
 C         2.445258         0.582975        -1.314130
 C         2.923720         0.769803         1.102536
 O         1.574123         0.733159         1.003512
 H        -0.321960        -0.431986         0.709371
 H        -0.196525         0.930297        -0.392825
 H        -0.512238        -0.694995        -1.081277
 H         1.871261        -2.063357         0.890775
 H         2.919819        -1.945880        -0.725510
 H         3.915497        -1.284936         1.782084
 H         4.000592         1.910717        -0.468771
 H         1.897074         1.579795        -1.541072
 H         2.713660         0.030657        -2.235837
 H         3.246678         1.384027         1.933388
