19
Iteration:  1139charge 0 multiplicity 1
 C         0.102852        -0.408687        -0.634572
 C         1.482177        -0.158016        -0.048076
 C         2.286436        -1.363694         0.443753
 C         3.545271        -0.642307         0.980271
 O         4.321661        -0.260521        -0.225354
 C         3.644118         1.037395        -0.303075
 C         2.373293         0.823587        -1.081986
 C         3.053977         0.850260         1.197900
 O         1.638582         0.778630         1.027401
 H        -0.611526        -0.927810         0.115705
 H        -0.324562         0.519731        -1.050614
 H         0.297941        -1.288525        -1.310662
 H         1.717381        -1.898892         1.262728
 H         2.672283        -2.033616        -0.401617
 H         4.176693        -1.087980         1.659295
 H         4.444822         1.910084        -0.351629
 H         1.810437         1.752389        -1.249510
 H         2.588233         0.538384        -2.142799
 H         3.318759         1.338920         2.146767
