19
Iteration:  4084
 C        -0.075390        -0.136471        -0.487065
 C         1.423203        -0.122632        -0.227298
 C         2.264602        -1.358248         0.275985
 C         3.488895        -0.683968         0.887366
 O         4.535925        -0.166695         0.004781
 C         3.660129         1.003376        -0.207488
 C         2.531580         0.661048        -1.112387
 C         3.033354         0.721131         1.161528
 O         1.595237         0.715176         0.989711
 H        -0.467648        -0.142930         0.609941
 H        -0.513861         0.729602        -0.955044
 H        -0.458519        -1.118897        -0.935436
 H         1.857832        -1.997188         1.082537
 H         2.456825        -2.009807        -0.591043
 H         4.008505        -1.235829         1.647935
 H         4.177549         1.887414        -0.472918
 H         2.101558         1.411066        -1.676473
 H         2.969065         0.188640        -2.036470
 H         3.173540         1.275570         2.090645
