19
Iteration:  1858charge 0 multiplicity 1
 C         0.292139        -0.415350        -0.691715
 C         1.569367        -0.051270        -0.095493
 C         2.210595        -1.272998         0.505652
 C         3.532062        -0.683860         0.962355
 O         4.292312        -0.313844        -0.252406
 C         3.577705         1.052656        -0.330733
 C         2.326455         0.782565        -1.078199
 C         3.046846         0.808831         1.235297
 O         1.632043         0.776844         1.100700
 H        -0.281084        -1.076981        -0.061157
 H        -0.439167         0.333844        -1.064506
 H         0.597200        -1.113797        -1.505398
 H         1.710556        -1.606747         1.360186
 H         2.359188        -2.283293        -0.136254
 H         4.174883        -1.109765         1.762615
 H         4.160363         1.830946        -0.652809
 H         1.780321         1.821753        -1.107148
 H         2.395944         0.392110        -2.097567
 H         3.402976         1.531842         2.006268
