19
Iteration:  1451
 C         0.105865        -0.332406        -0.503695
 C         1.477103        -0.178240        -0.135843
 C         2.245773        -1.346518         0.330912
 C         3.551911        -0.674983         0.916672
 O         4.509139        -0.143682        -0.106913
 C         3.602245         1.022801        -0.271656
 C         2.373482         0.682661        -1.142614
 C         3.026119         0.760330         1.144910
 O         1.556510         0.854465         1.097391
 H        -0.456805        -0.863557         0.322484
 H        -0.369100         0.603683        -0.853047
 H        -0.043443        -1.079470        -1.307501
 H         1.841925        -2.031273         1.054506
 H         2.517573        -2.003453        -0.618007
 H         4.071597        -1.252797         1.749706
 H         4.271554         1.800786        -0.548502
 H         1.894632         1.554522        -1.471534
 H         2.499895        -0.001638        -1.995969
 H         3.448122         1.479019         1.922766
