19
Iteration:  4766charge 0 multiplicity 1
 C        -0.026138        -0.214202        -0.604586
 C         1.482560         0.021845        -0.106733
 C         2.245925        -1.354329         0.320784
 C         3.518366        -0.726455         0.979288
 O         4.488318        -0.267218        -0.026686
 C         3.708063         0.929525        -0.252308
 C         2.486835         0.673601        -1.207325
 C         2.952793         0.743838         1.144794
 O         1.605646         0.841456         1.091199
 H        -0.103238         0.130528        -1.698773
 H        -0.122184        -1.258845        -0.633879
 H        -0.746412         0.335630         0.038215
 H         1.627884        -1.905566         1.024279
 H         2.506815        -1.969888        -0.542554
 H         4.016266        -1.262429         1.770676
 H         4.324955         1.815018        -0.545260
 H         1.962073         1.480255        -1.673711
 H         2.650503        -0.110693        -1.902167
 H         3.277768         1.448878         2.014694
