19
Iteration:  3469
 C         0.125004        -0.387675        -0.709017
 C         1.545036        -0.044806        -0.135326
 C         2.207525        -1.272290         0.491519
 C         3.535024        -0.723545         0.984856
 O         4.333293        -0.245854        -0.167982
 C         3.673559         0.984487        -0.270000
 C         2.384443         0.744219        -1.095113
 C         3.052562         0.745109         1.213705
 O         1.645858         0.867157         1.079161
 H        -0.377774        -1.223931        -0.219231
 H        -0.692531         0.388045        -0.760094
 H         0.224308        -0.758711        -1.821802
 H         1.483139        -1.511256         1.313428
 H         2.328039        -2.138673        -0.153696
 H         4.132982        -1.355096         1.602649
 H         4.276088         1.822939        -0.712682
 H         1.872669         1.654331        -1.525069
 H         2.689046         0.134076        -2.024288
 H         3.436927         1.281611         2.123058
