19
Iteration:   181charge 0 multiplicity 1
 C        -0.045486        -0.174584        -0.328708
 C         1.484454        -0.152772        -0.248311
 C         2.339475        -1.334644         0.191911
 C         3.528244        -0.616642         0.981155
 O         4.530771        -0.108878         0.022174
 C         3.582943         0.969143        -0.272791
 C         2.476352         0.556084        -1.215064
 C         2.995403         0.748647         1.136151
 O         1.578438         0.715650         1.007331
 H        -0.349963        -0.652296         0.563592
 H        -0.415629         0.854037        -0.433194
 H        -0.672154        -0.674779        -1.075906
 H         1.737807        -1.878706         0.905849
 H         2.749928        -1.977982        -0.551423
 H         3.899883        -1.426496         1.716487
 H         4.202524         1.948296        -0.480273
 H         2.096430         1.554024        -1.591845
 H         2.748948        -0.059199        -2.186971
 H         3.238310         1.436070         1.893275
