19
Iteration:  1092
 C         0.019294        -0.400422        -0.582931
 C         1.466948        -0.044774        -0.112340
 C         2.321179        -1.365033         0.410362
 C         3.551280        -0.700050         0.893108
 O         4.394712        -0.175125        -0.151396
 C         3.614040         1.021912        -0.271067
 C         2.414731         0.724062        -1.104267
 C         3.054808         0.811133         1.177267
 O         1.630864         0.795918         1.088348
 H        -0.540720        -1.153599         0.005397
 H        -0.634997         0.469593        -0.759013
 H         0.229163        -0.936399        -1.511136
 H         1.686270        -1.686005         1.200813
 H         2.593987        -2.195205        -0.404730
 H         4.088162        -1.219455         1.746506
 H         4.315142         1.722561        -0.577542
 H         1.899848         1.666653        -1.461370
 H         2.630701         0.195639        -2.055799
 H         3.332107         1.421809         2.070033
