19
Iteration:  3285
 C         0.058764        -0.413076        -0.685629
 C         1.518173        -0.014391        -0.080952
 C         2.188469        -1.281962         0.425356
 C         3.511934        -0.704169         0.934602
 O         4.444496        -0.266152        -0.200157
 C         3.712006         0.990353        -0.172766
 C         2.384628         0.694424        -1.056684
 C         3.061742         0.814733         1.162235
 O         1.602053         0.846735         1.059579
 H        -0.388938        -1.228931        -0.160589
 H        -0.591094         0.449723        -0.608416
 H         0.216801        -0.667588        -1.779951
 H         1.578486        -1.802214         1.214783
 H         2.221260        -2.056186        -0.326590
 H         3.987523        -1.299967         1.706654
 H         4.233265         1.905910        -0.586739
 H         1.992380         1.628545        -1.434108
 H         2.729791         0.042425        -1.938704
 H         3.365501         1.486394         2.014873
