19
Iteration:  2606charge 0 multiplicity 1
 C         0.151251        -0.426713        -0.680794
 C         1.503652        -0.024822        -0.101176
 C         2.193957        -1.240284         0.507201
 C         3.549423        -0.681825         0.944519
 O         4.385502        -0.318515        -0.184859
 C         3.648917         0.932127        -0.314801
 C         2.331952         0.816035        -1.059701
 C         3.072491         0.749090         1.183481
 O         1.645547         0.846799         1.043723
 H        -0.276696        -1.213542        -0.065211
 H        -0.543558         0.487754        -0.668357
 H         0.421943        -0.905571        -1.654005
 H         1.536132        -1.483621         1.329393
 H         2.162099        -2.071890        -0.232787
 H         4.189707        -1.225937         1.673617
 H         4.192611         1.893983        -0.593221
 H         1.796381         1.807131        -1.163794
 H         2.432327         0.396099        -2.024130
 H         3.490271         1.154674         2.073766
