19
Iteration:  2013
 C         0.169562        -0.465611        -0.653611
 C         1.530225        -0.100290        -0.169977
 C         2.337476        -1.359821         0.482150
 C         3.581850        -0.645397         0.982085
 O         4.264177        -0.312465        -0.265601
 C         3.682961         0.937607        -0.313087
 C         2.358297         0.892816        -1.106707
 C         2.978317         0.840684         1.227611
 O         1.566599         0.845754         1.147573
 H        -0.373347        -0.990849         0.161507
 H        -0.230509         0.501675        -0.908709
 H         0.273433        -0.932276        -1.613290
 H         1.687412        -1.667694         1.352846
 H         2.534712        -2.256272        -0.198906
 H         4.303452        -1.100922         1.666139
 H         4.309750         1.696613        -0.600715
 H         1.980703         1.946211        -1.175773
 H         2.554423         0.440564        -2.152029
 H         3.311358         1.404057         2.138054
