19
Iteration:  2861
 C         0.206181        -0.367633        -0.666723
 C         1.488236        -0.033147        -0.026399
 C         2.162127        -1.325826         0.419388
 C         3.509322        -0.723541         0.882315
 O         4.382334        -0.335809        -0.204700
 C         3.589625         1.044479        -0.239482
 C         2.447974         0.763590        -1.006231
 C         3.134004         0.781238         1.158440
 O         1.576373         0.910695         1.066519
 H        -0.694856        -0.584428        -0.003416
 H        -0.208277         0.300004        -1.393991
 H         0.348511        -1.381006        -1.124380
 H         1.688014        -1.936538         1.193271
 H         2.278370        -1.946807        -0.437416
 H         3.940472        -1.363917         1.616063
 H         4.134985         1.894799        -0.562119
 H         1.892247         1.601254        -1.424070
 H         2.810372         0.082109        -1.883549
 H         3.336997         1.248558         2.140595
