19
Iteration:  2538charge 0 multiplicity 1
 C        -0.001645        -0.161359        -0.417328
 C         1.475119        -0.177776        -0.214929
 C         2.283561        -1.436608         0.309087
 C         3.586187        -0.613494         0.953552
 O         4.507049        -0.216648        -0.040360
 C         3.619733         0.949088        -0.291699
 C         2.457420         0.671030        -1.158687
 C         2.921207         0.829878         1.091992
 O         1.607649         0.735348         1.025426
 H        -0.527348        -0.368295         0.519025
 H        -0.233139         0.897011        -0.696427
 H        -0.467196        -0.926368        -1.114824
 H         1.726244        -2.010032         1.097979
 H         2.607559        -2.044652        -0.482550
 H         4.010814        -1.118140         1.926962
 H         4.249579         1.794048        -0.628906
 H         2.135776         1.720603        -1.257760
 H         2.759560         0.206104        -2.172791
 H         3.123070         1.589839         1.944875
