19
Iteration:  2110
 C         0.073641        -0.301393        -0.496756
 C         1.548670        -0.092810        -0.104940
 C         2.321587        -1.383263         0.384146
 C         3.569825        -0.633080         0.933541
 O         4.411708        -0.236419        -0.138465
 C         3.594211         0.959211        -0.275627
 C         2.393044         0.761572        -1.134389
 C         2.954244         0.816705         1.124818
 O         1.592473         0.752307         1.021121
 H        -0.515043        -0.723875         0.323259
 H        -0.389576         0.645641        -0.771470
 H         0.168028        -0.947118        -1.359579
 H         1.718615        -1.799892         1.163418
 H         2.572713        -2.112541        -0.435387
 H         4.130052        -1.110071         1.751655
 H         4.280258         1.751283        -0.492747
 H         1.927836         1.719082        -1.301391
 H         2.600048         0.193714        -2.054404
 H         3.292127         1.379888         2.045455
