19
Iteration:   933
 C         0.014899        -0.303669        -0.501271
 C         1.457567        -0.104247        -0.160260
 C         2.332888        -1.305409         0.283602
 C         3.544574        -0.631096         0.957289
 O         4.473373        -0.165884        -0.076560
 C         3.622293         1.018245        -0.312584
 C         2.370660         0.603368        -1.107347
 C         3.045647         0.824794         1.142285
 O         1.591261         0.734557         1.082728
 H        -0.496591        -0.956530         0.245606
 H        -0.452693         0.652661        -0.594922
 H        -0.072095        -0.794778        -1.477190
 H         1.759633        -1.954680         1.050034
 H         2.473603        -1.927061        -0.581947
 H         4.087703        -1.319800         1.662804
 H         4.276814         1.930367        -0.528119
 H         1.929213         1.573659        -1.405267
 H         2.692625        -0.031635        -1.974429
 H         3.421978         1.283413         2.049839
