19
Iteration:  1381charge 0 multiplicity 1
 C         0.098973        -0.371625        -0.554110
 C         1.491219        -0.072876        -0.132511
 C         2.333243        -1.325193         0.401434
 C         3.590562        -0.618662         0.918026
 O         4.384302        -0.234404        -0.156330
 C         3.647313         0.926655        -0.281200
 C         2.342909         0.728632        -1.074089
 C         3.006103         0.782184         1.191383
 O         1.584983         0.820208         1.065516
 H        -0.549024        -1.047446        -0.022886
 H        -0.427924         0.552610        -0.866545
 H         0.037030        -0.974253        -1.522246
 H         1.633326        -1.835564         1.175697
 H         2.676191        -1.982623        -0.303235
 H         4.222858        -1.153617         1.523719
 H         4.275341         1.905760        -0.467754
 H         1.732923         1.634542        -1.391694
 H         2.625853         0.267962        -2.024952
 H         3.455847         1.446350         1.893123
