19
Iteration:   845charge 0 multiplicity 1
 C         0.142664        -0.473032        -0.675578
 C         1.492080        -0.052298        -0.100050
 C         2.219247        -1.269568         0.379191
 C         3.569948        -0.638631         0.962930
 O         4.347481        -0.295517        -0.224548
 C         3.660398         0.988049        -0.289856
 C         2.266691         0.801592        -1.059899
 C         3.057360         0.847336         1.235602
 O         1.683096         0.788901         1.126273
 H        -0.420849        -1.002216         0.116265
 H        -0.407669         0.250915        -1.198563
 H         0.390083        -1.134788        -1.489274
 H         1.683592        -1.703125         1.242660
 H         2.536125        -2.072875        -0.333389
 H         4.148206        -1.250123         1.699665
 H         4.158114         1.942600        -0.544465
 H         1.914166         1.813108        -1.289335
 H         2.422137         0.139999        -1.976511
 H         3.500261         1.458206         2.082350
