19
Iteration:   615charge 0 multiplicity 1
 C        -0.016933        -0.209445        -0.329040
 C         1.478855        -0.112401        -0.201577
 C         2.359411        -1.324437         0.189587
 C         3.478581        -0.668471         1.023199
 O         4.552076        -0.098174         0.041269
 C         3.644705         0.949138        -0.418500
 C         2.439038         0.597902        -1.232533
 C         2.892812         0.769536         1.125081
 O         1.594350         0.740715         1.043456
 H        -0.048384        -0.681913         0.689228
 H        -0.629042         0.699993        -0.209483
 H        -0.391469        -0.839368        -1.141198
 H         1.900479        -2.016719         0.829408
 H         2.712248        -1.908108        -0.731444
 H         3.935789        -1.361429         1.849807
 H         4.254471         1.769012        -0.603449
 H         1.998586         1.600078        -1.587441
 H         2.645879        -0.087836        -2.105649
 H         3.278635         1.302916         1.943408
