19
Iteration:  2860charge 0 multiplicity 1
 C         0.208660        -0.366829        -0.660009
 C         1.493093        -0.028630        -0.032136
 C         2.160727        -1.326055         0.412124
 C         3.499170        -0.730507         0.879848
 O         4.390932        -0.328759        -0.197653
 C         3.596062         1.044683        -0.237024
 C         2.440412         0.755610        -1.006972
 C         3.129421         0.779041         1.153689
 O         1.576805         0.911178         1.069008
 H        -0.696517        -0.571999         0.024111
 H        -0.216362         0.274161        -1.390170
 H         0.340575        -1.351178        -1.114388
 H         1.684689        -1.930166         1.170755
 H         2.276415        -1.985025        -0.442794
 H         3.953309        -1.358743         1.610848
 H         4.151810         1.914402        -0.582628
 H         1.876765         1.623504        -1.451328
 H         2.791091         0.053484        -1.867604
 H         3.339962         1.267193         2.153301
