19
Iteration:  4996charge 0 multiplicity 1
 C         0.131209        -0.355443        -0.709393
 C         1.519538        -0.034972        -0.203750
 C         2.246339        -1.240150         0.573574
 C         3.470412        -0.657493         1.075768
 O         4.348843        -0.367149        -0.127447
 C         3.605688         0.866470        -0.319113
 C         2.459342         0.680785        -1.125519
 C         3.024568         0.803794         1.120201
 O         1.679454         0.936547         1.056369
 H        -0.324734        -1.146938        -0.133776
 H        -0.498484         0.597596        -0.510993
 H         0.198770        -0.652002        -1.788853
 H         1.442860        -1.525918         1.234991
 H         2.342847        -2.134635        -0.099680
 H         3.887836        -1.126184         1.917499
 H         4.327009         1.640314        -0.705365
 H         1.960153         1.629424        -1.420622
 H         2.702832         0.221579        -2.099342
 H         3.340858         1.405540         1.967263
