19
Iteration:  2494charge 0 multiplicity 1
 C         0.044322        -0.238440        -0.423380
 C         1.517808        -0.051350        -0.164692
 C         2.255439        -1.352270         0.245983
 C         3.566568        -0.693424         0.962694
 O         4.478415        -0.161872        -0.005511
 C         3.569417         0.937001        -0.284305
 C         2.427018         0.571197        -1.199119
 C         3.031831         0.727360         1.154072
 O         1.566506         0.899486         1.031645
 H        -0.419484        -0.795736         0.396593
 H        -0.514072         0.658814        -0.707826
 H        -0.147189        -0.944767        -1.278631
 H         1.671065        -1.927300         1.006490
 H         2.471396        -1.916641        -0.606303
 H         4.204440        -1.357196         1.645888
 H         4.116076         1.850392        -0.457370
 H         1.887332         1.405189        -1.599443
 H         2.750715        -0.167272        -1.998528
 H         3.628375         1.374499         1.853274
