19
Iteration:  1414charge 0 multiplicity 1
 C         0.169520        -0.485668        -0.708523
 C         1.593489        -0.131487        -0.209230
 C         2.249590        -1.317570         0.558260
 C         3.556968        -0.622005         0.936328
 O         4.242425        -0.283755        -0.254831
 C         3.634081         0.995744        -0.311320
 C         2.337423         0.867602        -1.091026
 C         3.084411         0.812991         1.201431
 O         1.628988         0.783311         1.204483
 H        -0.428126        -0.903350         0.076811
 H        -0.316075         0.467959        -0.975172
 H         0.352358        -1.056559        -1.640313
 H         1.462802        -1.616490         1.330312
 H         2.517001        -2.105403        -0.029531
 H         4.133971        -1.126877         1.612399
 H         4.309836         1.917062        -0.464992
 H         1.665342         1.770231        -1.288711
 H         2.689748         0.490450        -2.063945
 H         3.476831         1.505749         1.902403
