19
Iteration:  1753
 C         0.055578        -0.217674        -0.441388
 C         1.533391        -0.141867        -0.137038
 C         2.375811        -1.432661         0.306848
 C         3.549353        -0.690191         0.968260
 O         4.495010        -0.165161        -0.068374
 C         3.546515         1.004284        -0.288075
 C         2.420571         0.680897        -1.206876
 C         2.921520         0.794329         1.122239
 O         1.556723         0.781189         1.012599
 H        -0.358678        -0.597382         0.507621
 H        -0.389841         0.770439        -0.596406
 H        -0.216515        -0.933356        -1.237697
 H         1.760937        -2.018716         1.130361
 H         2.775650        -2.062356        -0.409377
 H         4.071501        -1.135386         1.797386
 H         4.190233         1.959586        -0.531580
 H         1.851052         1.557769        -1.414427
 H         2.724332         0.134531        -2.107029
 H         3.246963         1.278462         2.025591
