19
Iteration:  3301charge 0 multiplicity 1
 C         0.209430        -0.427975        -0.715323
 C         1.450815        -0.077992        -0.075686
 C         2.202519        -1.304046         0.464968
 C         3.489582        -0.722100         0.925879
 O         4.256820        -0.278069        -0.147765
 C         3.578298         1.042355        -0.277471
 C         2.452872         0.764363        -1.131166
 C         3.098047         0.750055         1.225363
 O         1.711311         0.933485         1.094805
 H        -0.255146        -1.305040        -0.145775
 H        -0.612797         0.317278        -0.877625
 H         0.517856        -0.625892        -1.710954
 H         1.584547        -1.687258         1.294093
 H         2.322738        -2.150269        -0.304636
 H         4.227583        -1.305305         1.535472
 H         4.330675         1.773240        -0.427105
 H         1.712539         1.546461        -1.449763
 H         2.720434         0.220759        -1.992856
 H         3.494982         1.216155         2.095555
