19
Iteration:  2840charge 0 multiplicity 1
 C         0.026608        -0.294666        -0.530382
 C         1.466798        -0.037641        -0.174742
 C         2.234759        -1.284113         0.294309
 C         3.534335        -0.691491         0.944900
 O         4.476897        -0.184860        -0.044055
 C         3.662200         0.906309        -0.257575
 C         2.422351         0.685062        -1.231010
 C         3.018869         0.751451         1.189682
 O         1.650876         0.805060         1.089416
 H        -0.639889        -0.422134         0.375455
 H        -0.432443         0.536490        -1.063349
 H        -0.080005        -1.319508        -1.014694
 H         1.619726        -1.694812         1.135339
 H         2.355685        -1.977755        -0.496020
 H         3.905104        -1.366874         1.699989
 H         4.262041         1.759325        -0.413557
 H         1.931403         1.575842        -1.530141
 H         2.595611         0.073766        -2.184362
 H         3.370149         1.272657         2.108419
