19
Iteration:  3407
 C        -0.034988        -0.221761        -0.487787
 C         1.466356        -0.133299        -0.257146
 C         2.239967        -1.332130         0.347453
 C         3.552400        -0.678060         0.955125
 O         4.528795        -0.238758        -0.023400
 C         3.627220         1.013445        -0.204957
 C         2.440612         0.696552        -1.163912
 C         3.012857         0.782950         1.120504
 O         1.606634         0.764276         1.010463
 H        -0.531766        -0.492456         0.416390
 H        -0.329869         0.767112        -0.903295
 H        -0.145916        -1.044965        -1.149567
 H         1.672495        -2.002549         1.026202
 H         2.418422        -2.046663        -0.472633
 H         4.049704        -1.212985         1.800411
 H         4.280315         1.869577        -0.440581
 H         1.886738         1.511924        -1.512676
 H         2.898518         0.069588        -2.051238
 H         3.299991         1.415691         1.946476
