19
Iteration:  1077
 C         0.042260        -0.310646        -0.478744
 C         1.523567        -0.167792        -0.177845
 C         2.292375        -1.369426         0.319189
 C         3.569939        -0.643289         0.917588
 O         4.485192        -0.171499        -0.113124
 C         3.643441         1.018091        -0.225207
 C         2.413091         0.659742        -1.136070
 C         2.955342         0.813980         1.139414
 O         1.552367         0.808260         1.039547
 H        -0.318282        -0.860478         0.365885
 H        -0.365694         0.723617        -0.458939
 H        -0.374818        -0.772889        -1.381127
 H         1.850648        -2.112726         1.107722
 H         2.414025        -2.043556        -0.483058
 H         4.197064        -1.299937         1.690369
 H         4.038353         2.036778        -0.513126
 H         1.829084         1.561000        -1.405529
 H         2.789565         0.012199        -1.922195
 H         3.376524         1.338244         2.037634
