19
Iteration:  3729charge 0 multiplicity 1
 C         0.078941        -0.426584        -0.778245
 C         1.506457        -0.052519        -0.164594
 C         2.214122        -1.243552         0.443127
 C         3.565938        -0.732309         0.934807
 O         4.299740        -0.332045        -0.210258
 C         3.615771         0.997219        -0.162147
 C         2.418320         0.772096        -1.065404
 C         3.134321         0.785760         1.255014
 O         1.663488         0.901271         1.082616
 H        -0.475045        -0.653440         0.072284
 H        -0.332271         0.296793        -1.472565
 H         0.174297        -1.400393        -1.315884
 H         1.600689        -1.589366         1.298830
 H         2.245965        -2.151443        -0.123857
 H         4.049274        -1.340394         1.679114
 H         4.245148         1.861814        -0.442395
 H         1.866127         1.739130        -1.239666
 H         2.695898         0.480118        -2.021664
 H         3.427870         1.226384         2.219600
