19
Iteration:  1273
 C         0.196622        -0.514338        -0.713640
 C         1.471673         0.003219        -0.031017
 C         2.272164        -1.273579         0.494483
 C         3.534595        -0.721928         0.923659
 O         4.390650        -0.251211        -0.273489
 C         3.570003         0.995807        -0.252642
 C         2.304450         0.805595        -1.040426
 C         3.079047         0.771271         1.181588
 O         1.630089         0.828398         1.096053
 H        -0.512469        -0.992577        -0.014576
 H        -0.448599         0.362238        -1.137009
 H         0.579278        -1.065042        -1.636148
 H         1.688492        -1.810724         1.369849
 H         2.251039        -1.948927        -0.294343
 H         4.195202        -1.113781         1.710071
 H         4.247307         1.940219        -0.541641
 H         1.784988         1.756435        -1.257111
 H         2.563334         0.237024        -1.913394
 H         3.491424         1.383871         1.973448
