19
Iteration:  1433
 C         0.112004        -0.439365        -0.650634
 C         1.472995        -0.008552        -0.042222
 C         2.310812        -1.296587         0.434437
 C         3.578833        -0.674303         0.933135
 O         4.378211        -0.247179        -0.231551
 C         3.604704         1.010770        -0.235504
 C         2.362208         0.723846        -1.070971
 C         3.026059         0.816670         1.190725
 O         1.632623         0.796838         1.055434
 H        -0.576134        -0.943172         0.042171
 H        -0.495694         0.358778        -1.072235
 H         0.295932        -1.122508        -1.490077
 H         1.722347        -1.615719         1.298511
 H         2.428148        -2.154279        -0.283032
 H         4.234748        -1.279238         1.664421
 H         4.111305         1.926460        -0.534191
 H         1.795838         1.656598        -1.381429
 H         2.624704         0.315944        -2.072298
 H         3.390585         1.251194         2.102593
