19
Iteration:   657charge 0 multiplicity 1
 C         0.096169        -0.331616        -0.533468
 C         1.519024        -0.060251        -0.132986
 C         2.254198        -1.380416         0.462796
 C         3.535958        -0.668348         0.876930
 O         4.429111        -0.167974        -0.161243
 C         3.629203         0.982573        -0.255429
 C         2.386191         0.667502        -1.139353
 C         3.039928         0.789176         1.180651
 O         1.583198         0.801917         1.048837
 H        -0.400683        -0.872976         0.235364
 H        -0.470799         0.583315        -0.700705
 H         0.065098        -0.894339        -1.468586
 H         1.713517        -1.851091         1.238958
 H         2.637799        -2.123595        -0.351937
 H         4.048749        -1.259746         1.613903
 H         4.135171         1.903817        -0.597887
 H         1.813675         1.641533        -1.433440
 H         2.613215         0.174225        -2.106467
 H         3.435377         1.350136         2.023448
