19
Iteration:   275
 C         0.100113        -0.407224        -0.621520
 C         1.535686        -0.061706        -0.147881
 C         2.294983        -1.359181         0.381939
 C         3.553352        -0.711610         0.950643
 O         4.318723        -0.304189        -0.244170
 C         3.683975         1.030079        -0.226646
 C         2.379105         0.820191        -1.079317
 C         3.036182         0.818669         1.255110
 O         1.585994         0.841022         1.062238
 H        -0.365462        -0.888310         0.279235
 H        -0.514341         0.483768        -0.866858
 H         0.049661        -1.125432        -1.465021
 H         1.762065        -1.763152         1.252947
 H         2.661442        -2.232867        -0.264131
 H         4.179535        -1.210911         1.643784
 H         4.281730         1.851017        -0.475270
 H         1.771466         1.682780        -1.261693
 H         2.595300         0.386273        -1.993549
 H         3.415174         1.453350         2.073051
