19
Iteration:  2078charge 0 multiplicity 1
 C        -0.059961        -0.143192        -0.311195
 C         1.462350        -0.142446        -0.176721
 C         2.357018        -1.361472         0.203777
 C         3.580284        -0.604197         0.958993
 O         4.605998        -0.103304         0.000057
 C         3.561037         0.944047        -0.236398
 C         2.414484         0.562785        -1.215477
 C         2.941425         0.775049         1.114395
 O         1.594701         0.691548         0.967946
 H        -0.672687        -0.488318         0.523754
 H        -0.354041         0.827253        -0.575654
 H        -0.497133        -0.586181        -1.168035
 H         1.732974        -1.994073         0.834753
 H         2.676501        -1.997779        -0.661324
 H         4.033761        -1.140661         1.802589
 H         4.016461         1.879178        -0.416392
 H         2.061001         1.378537        -1.846985
 H         2.815992        -0.236417        -1.908955
 H         3.219195         1.354387         2.043536
