19
Iteration:  4124
 C         0.030452        -0.138069        -0.535501
 C         1.514246        -0.101536        -0.151406
 C         2.286138        -1.356882         0.263433
 C         3.523578        -0.649802         0.913003
 O         4.486032        -0.217062        -0.037990
 C         3.612116         0.950844        -0.253277
 C         2.439476         0.663471        -1.127988
 C         2.962553         0.752778         1.195515
 O         1.563652         0.720629         1.049914
 H        -0.550745        -0.380396         0.405247
 H        -0.186383         0.899997        -0.884633
 H        -0.251366        -0.864467        -1.281679
 H         1.823850        -2.028469         0.978910
 H         2.775004        -1.948598        -0.529248
 H         3.903143        -1.314689         1.724373
 H         4.293291         1.806320        -0.560442
 H         2.067695         1.733612        -1.509870
 H         2.779986        -0.041876        -1.951626
 H         3.440996         1.403407         1.939410
