19
Iteration:   536
 C         0.189904        -0.432286        -0.699411
 C         1.547303        -0.075798        -0.109506
 C         2.222215        -1.338745         0.508451
 C         3.566985        -0.677691         1.025375
 O         4.252744        -0.265254        -0.257008
 C         3.620692         1.031500        -0.328804
 C         2.349825         0.798006        -1.052226
 C         3.086860         0.822713         1.187943
 O         1.627635         0.772255         1.097376
 H        -0.452508        -0.885742        -0.003175
 H        -0.237122         0.513902        -1.025585
 H         0.302184        -1.135096        -1.525311
 H         1.515427        -1.585565         1.209678
 H         2.466226        -2.232521        -0.130884
 H         4.342597        -1.051229         1.626429
 H         4.334422         1.809197        -0.686752
 H         1.833372         1.849623        -1.124149
 H         2.530910         0.478720        -2.071275
 H         3.582755         1.366869         2.067221
