19
Iteration:  4541charge 0 multiplicity 1
 C         0.028836        -0.168580        -0.490635
 C         1.489947        -0.115330        -0.220535
 C         2.285627        -1.303866         0.228702
 C         3.512559        -0.719296         0.945010
 O         4.437448        -0.284587        -0.098957
 C         3.668731         1.009721        -0.212744
 C         2.478101         0.704361        -1.095535
 C         2.964894         0.770928         1.232722
 O         1.551685         0.734033         0.976339
 H        -0.222579        -0.141654         0.567455
 H        -0.149642         0.777687        -0.962932
 H        -0.396689        -1.119090        -0.786265
 H         1.668570        -1.881693         0.946187
 H         2.781085        -1.909458        -0.523255
 H         4.019756        -1.226407         1.771654
 H         4.270889         1.894873        -0.434205
 H         2.079841         1.556242        -1.398698
 H         3.032539         0.190080        -1.896279
 H         3.256271         1.302531         2.190903
