19
Iteration:  4873
 C         0.120189        -0.344131        -0.690345
 C         1.536539        -0.053754        -0.165756
 C         2.223369        -1.260544         0.524710
 C         3.484790        -0.652918         0.988359
 O         4.327681        -0.398834        -0.154661
 C         3.757993         0.916923        -0.198843
 C         2.456342         0.765619        -1.161725
 C         3.029427         0.836120         1.176676
 O         1.607790         0.836669         0.993621
 H        -0.564300         0.344137        -0.108557
 H        -0.045388        -0.193630        -1.717063
 H        -0.239594        -1.364862        -0.505463
 H         1.561878        -1.443100         1.391698
 H         2.286663        -2.190137        -0.050886
 H         3.945140        -1.062712         1.897631
 H         4.302485         1.743084        -0.575413
 H         1.905108         1.698381        -1.287248
 H         2.558300         0.390594        -2.125355
 H         3.337183         1.355593         2.139230
