19
Iteration:  4919charge 0 multiplicity 1
 C        -0.049289        -0.146973        -0.536494
 C         1.410786        -0.128783        -0.135770
 C         2.245045        -1.336334         0.301246
 C         3.456061        -0.624343         0.954241
 O         4.580809        -0.238902         0.065057
 C         3.729389         0.914908        -0.307071
 C         2.479287         0.524438        -1.116477
 C         3.031450         0.799065         1.126436
 O         1.561452         0.872396         0.982381
 H        -0.589351         0.366013         0.281691
 H        -0.148192         0.244382        -1.542594
 H        -0.343346        -1.194715        -0.716653
 H         1.673234        -1.943493         1.000475
 H         2.586355        -1.994839        -0.520614
 H         3.789688        -1.279440         1.720262
 H         4.268273         1.822353        -0.726384
 H         2.118035         1.343924        -1.675820
 H         2.714946        -0.193826        -1.865100
 H         3.340754         1.448050         2.021982
