19
Iteration:  2669charge 0 multiplicity 1
 C        -0.074944        -0.146229        -0.437040
 C         1.497367        -0.086365        -0.177189
 C         2.258155        -1.347776         0.240524
 C         3.661869        -0.799522         0.883760
 O         4.576851        -0.046894         0.123971
 C         3.576908         0.926653        -0.274407
 C         2.369442         0.559211        -1.253783
 C         2.997180         0.717389         1.118360
 O         1.606072         0.806281         1.034457
 H        -0.542428        -0.217127         0.477103
 H        -0.470380         0.844792        -0.707372
 H        -0.590062        -0.806081        -1.163584
 H         1.666558        -1.905652         1.003479
 H         2.431401        -2.080328        -0.509718
 H         4.268203        -1.336437         1.695203
 H         4.128207         1.869238        -0.374328
 H         1.887572         1.356269        -1.928373
 H         2.669941        -0.269283        -1.975493
 H         3.515556         1.293081         1.913565
