19
Iteration:   719charge 0 multiplicity 1
 C         0.148102        -0.380557        -0.502923
 C         1.555500        -0.071538        -0.162851
 C         2.268944        -1.291136         0.429792
 C         3.546993        -0.687096         0.904218
 O         4.383756        -0.230020        -0.159106
 C         3.583089         1.027904        -0.269807
 C         2.378730         0.761561        -1.136467
 C         2.987342         0.786712         1.173129
 O         1.608294         0.750863         1.024180
 H        -0.406915        -0.696705         0.393479
 H        -0.322097         0.585529        -0.842050
 H         0.027670        -1.187124        -1.259655
 H         1.697182        -1.826889         1.243364
 H         2.490500        -2.048142        -0.272563
 H         4.053265        -1.314914         1.654627
 H         4.365010         1.819300        -0.452227
 H         1.846741         1.668469        -1.341557
 H         2.685356         0.199226        -1.985075
 H         3.380300         1.493417         1.958367
