19
Iteration:   409charge 0 multiplicity 1
 C         0.126361        -0.462524        -0.690598
 C         1.516938        -0.055908        -0.064553
 C         2.239647        -1.216602         0.379932
 C         3.539121        -0.715104         0.930902
 O         4.346106        -0.304574        -0.254621
 C         3.617954         1.003238        -0.245981
 C         2.358381         0.797298        -1.079130
 C         3.105758         0.837986         1.223531
 O         1.609186         0.820443         1.171624
 H        -0.576854        -1.069251        -0.078937
 H        -0.534368         0.282042        -1.281148
 H         0.456844        -1.052758        -1.609306
 H         1.723663        -1.748663         1.286264
 H         2.628211        -2.103198        -0.300931
 H         4.202778        -1.368225         1.667711
 H         4.231232         1.822021        -0.512870
 H         1.885043         1.762219        -1.105487
 H         2.339151         0.412270        -2.117797
 H         3.622238         1.327823         2.098389
