19
Iteration:  2714
 C         0.158269        -0.348835        -0.588474
 C         1.538097        -0.063907        -0.147118
 C         2.327391        -1.308459         0.400313
 C         3.527106        -0.672429         1.044160
 O         4.229650        -0.383356        -0.203939
 C         3.668566         1.027229        -0.311979
 C         2.445314         0.819705        -1.128032
 C         3.002209         0.834528         1.227766
 O         1.599659         0.762768         1.088179
 H        -0.434842        -0.516473         0.260839
 H        -0.378333         0.485928        -1.118694
 H         0.008889        -1.154423        -1.303936
 H         1.706002        -1.926576         1.041393
 H         2.543732        -1.962501        -0.466156
 H         4.176170        -1.191821         1.821851
 H         4.357848         1.828956        -0.715060
 H         1.968082         1.863756        -1.403571
 H         2.745880         0.383495        -2.069181
 H         3.344451         1.434932         2.011621
