19
Iteration:  1035charge 0 multiplicity 1
 C        -0.068234        -0.241117        -0.428218
 C         1.455083        -0.174710        -0.189661
 C         2.347775        -1.383514         0.207455
 C         3.566393        -0.649805         0.929628
 O         4.605294        -0.142026        -0.032565
 C         3.611035         1.030454        -0.311754
 C         2.399190         0.590898        -1.184617
 C         2.972755         0.803535         1.162897
 O         1.532717         0.744730         1.124270
 H        -0.484474        -0.471957         0.502066
 H        -0.426611         0.791626        -0.613553
 H        -0.406829        -0.832836        -1.269357
 H         1.744009        -2.111514         0.892504
 H         2.895430        -1.905117        -0.639624
 H         4.070469        -1.127311         1.904691
 H         4.274110         1.844598        -0.490895
 H         1.901583         1.579178        -1.521834
 H         2.681439         0.035898        -2.087316
 H         3.451951         1.617217         1.794013
