19
Iteration:  2433
 C         0.205885        -0.385244        -0.683895
 C         1.547398        -0.118576        -0.048151
 C         2.221793        -1.319080         0.493396
 C         3.544361        -0.624606         0.916465
 O         4.286873        -0.330053        -0.224396
 C         3.622432         0.975167        -0.301829
 C         2.313354         0.764834        -1.043497
 C         3.074227         0.814388         1.201869
 O         1.655826         0.873407         1.074239
 H        -0.411769        -1.001778        -0.027016
 H        -0.245567         0.556817        -1.113969
 H         0.640763        -0.906923        -1.565059
 H         1.535303        -1.652037         1.297864
 H         2.287880        -2.206235        -0.232287
 H         4.091118        -1.196221         1.636277
 H         4.319882         1.832550        -0.592323
 H         1.691304         1.695591        -1.343366
 H         2.494108         0.268456        -1.967668
 H         3.473460         1.408951         2.063137
