19
Iteration:  4989charge 0 multiplicity 1
 C         0.115996        -0.339365        -0.634296
 C         1.546133        -0.042144        -0.173239
 C         2.236278        -1.266159         0.531339
 C         3.461003        -0.675429         1.112211
 O         4.310165        -0.369732        -0.153282
 C         3.629514         0.875060        -0.282726
 C         2.466096         0.707598        -1.175554
 C         3.009503         0.830418         1.144094
 O         1.638329         0.918506         0.986582
 H        -0.384816        -1.078142        -0.013645
 H        -0.430449         0.626918        -0.823609
 H         0.261256        -0.546277        -1.706764
 H         1.634889        -1.640577         1.399869
 H         2.656430        -2.126465         0.013288
 H         4.092725        -1.233517         1.859183
 H         4.378362         1.672059        -0.516596
 H         2.081570         1.655394        -1.447996
 H         2.793348         0.166236        -2.086955
 H         3.474860         1.418928         1.890707
