19
Iteration:   596charge 0 multiplicity 1
 C         0.012219        -0.312677        -0.408195
 C         1.467729        -0.089218        -0.098475
 C         2.309694        -1.330577         0.213556
 C         3.501209        -0.621827         0.895564
 O         4.570730        -0.188990         0.044260
 C         3.613792         0.940279        -0.259591
 C         2.321525         0.639400        -1.202112
 C         3.052749         0.835825         1.102575
 O         1.586715         0.761787         1.028086
 H        -0.655578        -0.694022         0.467924
 H        -0.415227         0.682950        -0.693770
 H        -0.048729        -0.873958        -1.380235
 H         1.704832        -2.057133         0.887817
 H         2.684844        -1.880414        -0.608855
 H         4.161962        -1.104880         1.731261
 H         4.150093         1.788638        -0.647795
 H         1.895387         1.549289        -1.460195
 H         2.571537        -0.030377        -2.053757
 H         3.404000         1.496003         1.849337
