19
Iteration:   688
 C         0.144468        -0.444523        -0.780697
 C         1.502971        -0.016937        -0.066043
 C         2.297370        -1.319401         0.563164
 C         3.551321        -0.616838         0.922735
 O         4.340814        -0.316647        -0.244280
 C         3.632364         0.980984        -0.308875
 C         2.259649         0.807402        -1.007141
 C         3.085393         0.774689         1.145015
 O         1.640533         0.810992         1.156449
 H        -0.488840        -0.761198        -0.024098
 H        -0.367505         0.435138        -1.206627
 H         0.312969        -1.111658        -1.616043
 H         1.761340        -1.959392         1.268434
 H         2.847343        -1.886780        -0.262808
 H         3.952172        -1.158309         1.674986
 H         4.267835         1.927631        -0.624902
 H         1.609030         1.681746        -1.273871
 H         2.476080         0.250553        -1.870049
 H         3.558889         1.462369         1.890082
