19
Iteration:   699
 C         0.145425        -0.407434        -0.695343
 C         1.468836        -0.124579        -0.067449
 C         2.306946        -1.363601         0.465975
 C         3.563372        -0.665065         0.996682
 O         4.309202        -0.292294        -0.272259
 C         3.600227         1.009204        -0.268003
 C         2.324032         0.781922        -1.062065
 C         3.109930         0.867349         1.175185
 O         1.616591         0.860513         1.106009
 H        -0.561922        -0.884962        -0.087148
 H        -0.271759         0.446654        -1.240075
 H         0.399653        -1.210286        -1.384364
 H         1.785215        -1.951154         1.231527
 H         2.497273        -2.117357        -0.334788
 H         4.225349        -1.053938         1.674179
 H         4.394209         1.788567        -0.578030
 H         1.907584         1.790363        -1.064221
 H         2.404334         0.392333        -2.039157
 H         3.492201         1.312556         2.106532
