19
Iteration:  3438charge 0 multiplicity 1
 C         0.172253        -0.351206        -0.697662
 C         1.558118        -0.081683        -0.104259
 C         2.270688        -1.352642         0.458518
 C         3.527033        -0.647089         1.001104
 O         4.340099        -0.373485        -0.170035
 C         3.680097         0.946072        -0.328148
 C         2.389706         0.828788        -1.091523
 C         2.990644         0.814356         1.159828
 O         1.550168         0.865757         1.155467
 H        -0.359942        -0.997114        -0.061281
 H        -0.382842         0.590251        -0.947031
 H         0.417290        -0.874123        -1.633294
 H         1.567852        -1.802283         1.108190
 H         2.521064        -1.891425        -0.406591
 H         4.165872        -1.169235         1.688129
 H         4.350252         1.688727        -0.816670
 H         1.885424         1.778970        -1.187614
 H         2.519550         0.264240        -2.112829
 H         3.320138         1.429615         1.998866
