19
Iteration:  1303charge 0 multiplicity 1
 C         0.057810        -0.338828        -0.517444
 C         1.477055        -0.122703        -0.153853
 C         2.354309        -1.322364         0.378154
 C         3.542167        -0.676762         0.964403
 O         4.402888        -0.179287        -0.118298
 C         3.636392         1.007714        -0.323198
 C         2.374750         0.729382        -1.147176
 C         3.024275         0.816285         1.168066
 O         1.621255         0.711536         1.071876
 H        -0.615014        -0.617538         0.316863
 H        -0.407748         0.602851        -0.854718
 H        -0.226348        -0.991776        -1.373064
 H         1.809908        -2.032796         1.054882
 H         2.575121        -1.967959        -0.491557
 H         3.978451        -1.108377         1.815653
 H         4.224841         1.935310        -0.646059
 H         1.932977         1.756776        -1.365650
 H         2.703851         0.118399        -2.025222
 H         3.354712         1.449266         2.048842
