19
Iteration:   223charge 0 multiplicity 1
 C         0.020767        -0.352968        -0.635225
 C         1.494635        -0.094039        -0.151905
 C         2.262362        -1.261882         0.399082
 C         3.569091        -0.649696         0.927200
 O         4.398890        -0.232307        -0.204022
 C         3.622569         0.956551        -0.240689
 C         2.399047         0.713408        -1.057637
 C         3.033052         0.781177         1.209930
 O         1.642796         0.767704         1.118672
 H        -0.615624        -0.864077         0.080647
 H        -0.412982         0.610263        -0.999935
 H         0.112022        -0.981233        -1.552066
 H         1.742416        -1.763831         1.219499
 H         2.593335        -2.014413        -0.379708
 H         4.245024        -1.044894         1.791054
 H         4.044985         1.865628        -0.578570
 H         1.903227         1.682782        -1.364069
 H         2.725820         0.220550        -2.057641
 H         3.491382         1.385472         1.963877
