19
Iteration:   601
 C         0.014704        -0.300551        -0.344447
 C         1.492316        -0.073800        -0.129412
 C         2.312153        -1.335170         0.187053
 C         3.530898        -0.634127         0.929166
 O         4.562410        -0.163269         0.073379
 C         3.628777         0.946069        -0.305011
 C         2.349425         0.618362        -1.207835
 C         3.039333         0.792505         1.084783
 O         1.553402         0.751695         1.041082
 H        -0.616062        -0.705175         0.370271
 H        -0.306619         0.699215        -0.616282
 H        -0.141181        -0.825554        -1.272793
 H         1.688898        -1.971824         0.778755
 H         2.618808        -1.908236        -0.753525
 H         3.888985        -1.047917         1.815374
 H         4.123035         1.841857        -0.795434
 H         1.884041         1.626324        -1.580677
 H         2.513364        -0.025238        -2.060681
 H         3.403880         1.515555         1.884085
