19
Iteration:  1559
 C         0.208966        -0.481425        -0.707117
 C         1.555277        -0.073831        -0.052042
 C         2.255629        -1.299068         0.514002
 C         3.602181        -0.685991         0.954263
 O         4.268885        -0.300384        -0.256277
 C         3.643258         1.047771        -0.287312
 C         2.298851         0.845799        -1.044027
 C         3.063273         0.837020         1.183159
 O         1.627748         0.773529         1.071378
 H        -0.511493        -1.127027        -0.103743
 H        -0.356238         0.406962        -1.026009
 H         0.462513        -1.108616        -1.574437
 H         1.530221        -1.587743         1.262273
 H         2.437508        -2.075581        -0.297350
 H         4.155739        -1.052623         1.793197
 H         4.392970         1.825252        -0.526483
 H         1.568328         1.728851        -1.074499
 H         2.305862         0.399371        -2.071369
 H         3.454702         1.511074         2.008888
