19
Iteration:  2552charge 0 multiplicity 1
 C         0.083255        -0.220522        -0.505252
 C         1.551058        -0.089988        -0.127127
 C         2.349333        -1.351646         0.397028
 C         3.491937        -0.695754         1.005492
 O         4.410985        -0.255611        -0.100423
 C         3.629478         0.967586        -0.288602
 C         2.340486         0.733053        -1.182538
 C         3.047537         0.793574         1.158202
 O         1.579364         0.748756         0.977732
 H        -0.478497        -0.442262         0.397137
 H        -0.351190         0.790675        -0.889194
 H         0.051180        -0.978931        -1.346007
 H         1.701461        -1.839969         1.127186
 H         2.657529        -2.162463        -0.340765
 H         4.074017        -1.217051         1.766548
 H         4.242467         1.909966        -0.524065
 H         1.654163         1.563126        -1.455928
 H         2.537218         0.253881        -2.077406
 H         3.465111         1.368609         1.981503
