19
Iteration:   967
 C         0.155657        -0.447041        -0.667406
 C         1.534120        -0.026618        -0.060874
 C         2.304578        -1.356147         0.471436
 C         3.596925        -0.648152         0.970261
 O         4.274924        -0.290569        -0.235144
 C         3.663024         1.004217        -0.281541
 C         2.359955         0.867737        -1.033307
 C         3.081547         0.826189         1.148537
 O         1.570687         0.768466         1.060050
 H        -0.342743        -1.081448         0.073364
 H        -0.560015         0.291330        -0.971506
 H         0.387072        -1.022005        -1.569388
 H         1.524772        -1.625854         1.341485
 H         2.479241        -2.125233        -0.235218
 H         4.321871        -1.382260         1.548271
 H         4.259221         1.919992        -0.626184
 H         1.693962         1.762509        -1.140679
 H         2.422835         0.427276        -2.066296
 H         3.249079         1.323755         2.045666
