19
Iteration:   687
 C         0.145551        -0.445886        -0.783081
 C         1.506926        -0.011241        -0.059660
 C         2.300242        -1.312915         0.556496
 C         3.550751        -0.611229         0.919120
 O         4.343543        -0.317153        -0.239002
 C         3.634106         0.975936        -0.314107
 C         2.259947         0.811546        -1.008689
 C         3.079709         0.764889         1.141455
 O         1.644261         0.804985         1.162257
 H        -0.505047        -0.762459        -0.005649
 H        -0.383674         0.444362        -1.208955
 H         0.309445        -1.104563        -1.644566
 H         1.728294        -1.943211         1.296455
 H         2.814799        -1.864236        -0.232232
 H         3.957590        -1.183070         1.687184
 H         4.233826         1.939384        -0.634564
 H         1.597590         1.618935        -1.297758
 H         2.485469         0.269036        -1.864153
 H         3.544436         1.501092         1.881466
