19
Iteration:  3805
 C        -0.054759        -0.153910        -0.392410
 C         1.460648        -0.075058        -0.136069
 C         2.309833        -1.320887         0.183797
 C         3.512051        -0.709105         0.902734
 O         4.582546        -0.216964         0.089994
 C         3.657221         0.965134        -0.288628
 C         2.523244         0.544521        -1.172321
 C         2.956703         0.754582         1.181767
 O         1.520444         0.823127         0.944905
 H        -0.548575        -0.809374         0.313724
 H        -0.489066         0.856430        -0.093366
 H        -0.027859        -0.416791        -1.513574
 H         1.872522        -2.035205         0.861790
 H         2.481762        -1.954853        -0.678575
 H         3.754022        -1.406339         1.708752
 H         4.255217         1.871089        -0.530284
 H         2.029692         1.387007        -1.677805
 H         2.717383        -0.044533        -2.016778
 H         3.247322         1.565483         1.888666
