19
Iteration:  4690charge 0 multiplicity 1
 C         0.067896        -0.159781        -0.648010
 C         1.539293        -0.085828        -0.193427
 C         2.177170        -1.337202         0.322342
 C         3.590290        -0.679733         0.983672
 O         4.403164        -0.246707        -0.085768
 C         3.630646         0.973039        -0.220323
 C         2.458194         0.643412        -1.072828
 C         3.009662         0.791741         1.202280
 O         1.618260         0.748619         1.042779
 H        -0.157304        -1.154527        -1.047414
 H        -0.344526        -0.113541         0.309110
 H        -0.148344         0.767905        -1.143448
 H         1.568787        -1.893788         1.002759
 H         2.330415        -2.065767        -0.470123
 H         4.001891        -1.419194         1.564916
 H         4.151357         1.888622        -0.532121
 H         1.931941         1.546932        -1.474146
 H         2.623334         0.074635        -1.978002
 H         3.340175         1.363774         2.137285
