19
Iteration:   147
 C         0.026007        -0.329270        -0.533538
 C         1.498506        -0.082025        -0.109695
 C         2.304833        -1.368332         0.245455
 C         3.517845        -0.681542         0.955004
 O         4.484403        -0.199624        -0.043921
 C         3.625310         0.931736        -0.327666
 C         2.374131         0.661500        -1.106210
 C         3.029555         0.801774         1.145914
 O         1.586970         0.888719         1.079213
 H        -0.434432        -0.820442         0.302545
 H        -0.567095         0.570589        -0.682564
 H         0.029321        -1.024232        -1.372328
 H         1.850708        -1.939408         1.009807
 H         2.646157        -2.008385        -0.572661
 H         4.060547        -1.324654         1.758536
 H         3.989218         1.925208        -0.605629
 H         2.022873         1.721999        -1.323858
 H         2.561360         0.131882        -2.101035
 H         3.501644         1.315192         1.957988
