19
Iteration:  4411
 C        -0.006827        -0.295927        -0.602634
 C         1.455477        -0.024145        -0.135790
 C         2.206309        -1.299721         0.169002
 C         3.527426        -0.719542         1.012807
 O         4.493719        -0.268565        -0.016267
 C         3.642639         0.924312        -0.249522
 C         2.405881         0.674505        -1.093074
 C         3.090097         0.753391         1.209034
 O         1.642380         0.870639         1.069078
 H        -0.498201        -1.069235        -0.049903
 H        -0.596028         0.585571        -0.439792
 H        -0.070237        -0.448862        -1.717752
 H         1.542280        -1.902093         0.821642
 H         2.472271        -1.936914        -0.661871
 H         4.053114        -1.234003         1.818076
 H         4.037634         1.875278        -0.568790
 H         2.054760         1.676994        -1.468543
 H         2.605840         0.013919        -2.014623
 H         3.689037         1.426638         1.890973
