19
Iteration:  1590charge 0 multiplicity 1
 C         0.056497        -0.384082        -0.552991
 C         1.547862        -0.088288        -0.128057
 C         2.365959        -1.323693         0.380659
 C         3.602706        -0.696601         0.948459
 O         4.334229        -0.213255        -0.172009
 C         3.646010         1.020745        -0.255338
 C         2.401792         0.745200        -1.128646
 C         2.967805         0.810200         1.170412
 O         1.590363         0.771727         1.057778
 H        -0.465214        -0.819379         0.317977
 H        -0.386024         0.571170        -0.830481
 H        -0.032011        -1.062805        -1.404153
 H         1.643140        -1.748064         1.194251
 H         2.497308        -2.112453        -0.339133
 H         4.118708        -1.114220         1.786877
 H         4.395086         1.889619        -0.574807
 H         1.718456         1.685323        -1.317796
 H         2.550460         0.093905        -2.040750
 H         3.418781         1.454952         1.983269
