19
Iteration:  4640
 C        -0.035412        -0.186864        -0.426886
 C         1.529418        -0.106777        -0.270464
 C         2.274577        -1.289557         0.218943
 C         3.477954        -0.705608         0.937633
 O         4.515530        -0.235376         0.012924
 C         3.689146         0.899160        -0.222124
 C         2.443106         0.698216        -1.147764
 C         2.968078         0.798229         1.223482
 O         1.596937         0.750716         0.966419
 H        -0.160231        -1.267807        -0.321725
 H        -0.524548         0.485171         0.377978
 H        -0.235770         0.299919        -1.426437
 H         1.543118        -1.848103         0.897039
 H         2.586454        -2.050345        -0.553964
 H         3.709161        -1.494782         1.815469
 H         4.302091         1.720829        -0.661806
 H         1.931110         1.672206        -1.311705
 H         2.868104         0.343098        -2.158657
 H         3.337895         1.384672         2.083674
