19
Iteration:  4588
 C         0.145182        -0.312945        -0.802460
 C         1.474405        -0.003189        -0.075227
 C         2.199064        -1.269332         0.416005
 C         3.554784        -0.674168         0.875332
 O         4.391173        -0.302808        -0.159309
 C         3.677709         0.945492        -0.260236
 C         2.345192         0.719715        -1.024670
 C         3.064731         0.740152         1.218265
 O         1.632746         0.803312         1.153333
 H        -0.270055        -1.281954        -0.550456
 H        -0.361966         0.682701        -0.532161
 H         0.312059        -0.487124        -1.880978
 H         1.509058        -1.492244         1.248329
 H         2.264736        -2.033026        -0.405677
 H         3.877264        -1.329447         1.773049
 H         4.326013         1.802150        -0.542606
 H         1.837989         1.680202        -1.087808
 H         2.428238         0.187672        -1.949463
 H         3.478765         1.287563         2.027209
