19
Iteration:  3066charge 0 multiplicity 1
 C         0.052325        -0.222474        -0.484934
 C         1.545393        -0.162146        -0.162291
 C         2.320337        -1.325869         0.334210
 C         3.433747        -0.657802         1.015032
 O         4.460535        -0.273642        -0.072409
 C         3.660869         0.925247        -0.236121
 C         2.428585         0.712121        -1.173333
 C         2.995638         0.852256         1.112807
 O         1.560080         0.767046         0.980918
 H        -0.467534        -0.507537         0.470459
 H        -0.163658         0.787441        -0.679753
 H        -0.174192        -0.843340        -1.357535
 H         1.673224        -1.925294         1.025626
 H         2.624459        -2.013020        -0.446691
 H         4.025994        -1.204052         1.693447
 H         4.247791         1.852336        -0.547957
 H         2.075931         1.704051        -1.313878
 H         2.622993         0.210732        -2.103484
 H         3.277585         1.358547         2.021175
