19
Iteration:  3393
 C        -0.110295        -0.207963        -0.447430
 C         1.469850        -0.088401        -0.151686
 C         2.271090        -1.404025         0.223620
 C         3.500542        -0.662416         0.934313
 O         4.538993        -0.138090        -0.038844
 C         3.736315         0.999602        -0.249739
 C         2.575383         0.581280        -1.192810
 C         2.954597         0.762841         1.164227
 O         1.529116         0.766565         1.048118
 H        -0.469806        -0.231129         0.559866
 H        -0.586711         0.695987        -0.846263
 H        -0.622597        -1.009975        -1.060408
 H         1.693161        -1.788173         1.029477
 H         2.669825        -1.959966        -0.557690
 H         3.945766        -1.270388         1.697831
 H         4.248193         1.978063        -0.504872
 H         2.295997         1.454387        -1.853832
 H         2.969475        -0.253604        -1.887756
 H         3.315043         1.333846         2.073570
