19
Iteration:  4359
 C        -0.039667        -0.117548        -0.514714
 C         1.480846        -0.094850        -0.252548
 C         2.246417        -1.341906         0.390949
 C         3.515479        -0.758588         0.975362
 O         4.451650        -0.218306        -0.084674
 C         3.674902         0.967376        -0.150626
 C         2.487030         0.682975        -1.153107
 C         2.986818         0.751086         1.145535
 O         1.639685         0.719680         0.956005
 H        -0.385558        -0.927503         0.086415
 H        -0.471128         0.900000        -0.247747
 H        -0.515637        -0.373483        -1.533137
 H         1.789503        -1.889876         1.216753
 H         2.682193        -2.086768        -0.274089
 H         4.229075        -1.247158         1.684754
 H         4.028236         1.902023        -0.488482
 H         1.940874         1.700557        -1.354921
 H         2.940343         0.338521        -2.121808
 H         3.395827         1.367707         1.960992
