19
Iteration:   971charge 0 multiplicity 1
 C         0.158516        -0.466042        -0.691145
 C         1.554360        -0.038107        -0.056681
 C         2.262545        -1.311243         0.480975
 C         3.588872        -0.626557         0.934728
 O         4.245951        -0.294355        -0.253959
 C         3.696552         1.011193        -0.263356
 C         2.389473         0.868903        -1.027397
 C         3.069245         0.804713         1.152568
 O         1.580774         0.748260         1.077358
 H        -0.357945        -1.055421         0.046775
 H        -0.611061         0.322891        -0.885754
 H         0.339767        -1.174438        -1.512499
 H         1.616299        -1.532146         1.268280
 H         2.606476        -2.180273        -0.138146
 H         4.260962        -1.237009         1.555164
 H         4.228343         1.830951        -0.572269
 H         1.706002         1.728024        -1.170573
 H         2.390141         0.456920        -2.019849
 H         3.272983         1.439209         2.059828
