19
Iteration:  2319
 C         0.115509        -0.400743        -0.657249
 C         1.542659        -0.081546        -0.076046
 C         2.206797        -1.345024         0.473631
 C         3.544696        -0.705937         0.875814
 O         4.416631        -0.232952        -0.157846
 C         3.621154         1.016127        -0.321958
 C         2.364029         0.709851        -1.116163
 C         3.056459         0.788338         1.213216
 O         1.630711         0.888571         1.119758
 H        -0.596010        -0.909130         0.038519
 H        -0.516589         0.384513        -1.027560
 H         0.290202        -1.012708        -1.520626
 H         1.523653        -1.692717         1.275363
 H         2.099992        -2.094603        -0.260485
 H         4.126501        -1.193492         1.724467
 H         4.285659         1.791239        -0.581470
 H         1.820965         1.534717        -1.321641
 H         2.584225         0.212518        -2.120033
 H         3.528049         1.496054         1.875497
