19
Iteration:  1449charge 0 multiplicity 1
 C         0.106983        -0.349609        -0.514329
 C         1.484059        -0.169677        -0.135104
 C         2.241996        -1.339846         0.354083
 C         3.556659        -0.681040         0.905787
 O         4.505303        -0.152360        -0.120251
 C         3.596726         1.014082        -0.272073
 C         2.362682         0.701299        -1.130571
 C         3.041310         0.752811         1.152765
 O         1.550557         0.859448         1.093361
 H        -0.461831        -0.880969         0.272759
 H        -0.321599         0.610663        -0.881883
 H         0.037103        -1.101787        -1.334626
 H         1.801860        -2.067999         1.078237
 H         2.500352        -1.927967        -0.522653
 H         4.050338        -1.206335         1.671390
 H         4.319214         1.840413        -0.531945
 H         1.870360         1.613823        -1.465740
 H         2.538821        -0.039634        -1.923754
 H         3.402365         1.491289         1.908179
