19
Iteration:  3490
 C         0.085325        -0.255046        -0.505760
 C         1.539785        -0.099187        -0.126719
 C         2.269096        -1.373344         0.379005
 C         3.502285        -0.703537         0.923334
 O         4.499183        -0.262403        -0.091383
 C         3.623375         0.966176        -0.209985
 C         2.455752         0.692397        -1.164779
 C         2.977165         0.783626         1.133583
 O         1.538034         0.841895         0.991006
 H        -0.422296        -0.975553         0.159897
 H        -0.417772         0.750329        -0.489013
 H         0.116358        -0.629476        -1.610127
 H         1.775167        -1.721333         1.340391
 H         2.284609        -2.080063        -0.462746
 H         3.955397        -1.263731         1.710071
 H         4.188376         1.916032        -0.386040
 H         1.921582         1.665097        -1.415461
 H         2.629471         0.130695        -2.088611
 H         3.258856         1.575081         1.866346
