19
Iteration:  1027charge 0 multiplicity 1
 C        -0.022606        -0.248877        -0.446662
 C         1.472827        -0.168716        -0.098674
 C         2.320002        -1.323801         0.225773
 C         3.552532        -0.631452         0.918377
 O         4.597759        -0.165715        -0.077459
 C         3.625785         0.986718        -0.278116
 C         2.383937         0.618579        -1.147291
 C         2.955805         0.823628         1.133038
 O         1.555408         0.751696         1.081913
 H        -0.632731        -0.686370         0.381393
 H        -0.364456         0.735348        -0.820790
 H        -0.193314        -0.992779        -1.246342
 H         1.845040        -2.032310         0.824093
 H         2.732160        -2.048158        -0.600749
 H         4.047347        -1.150917         1.733117
 H         4.028656         1.914329        -0.599909
 H         1.869040         1.579642        -1.337948
 H         2.767343         0.046026        -1.993546
 H         3.310364         1.363097         2.077891
