19
Iteration:  2260
 C         0.052640        -0.326652        -0.489929
 C         1.542619        -0.120205        -0.143353
 C         2.258559        -1.341490         0.337244
 C         3.460798        -0.662150         0.987178
 O         4.426212        -0.203572        -0.138793
 C         3.619976         0.973298        -0.280686
 C         2.408178         0.691940        -1.105232
 C         3.068292         0.823259         1.166343
 O         1.616165         0.781633         1.001834
 H        -0.516404        -0.836631         0.296857
 H        -0.347374         0.659862        -0.818839
 H         0.073863        -1.036680        -1.345034
 H         1.604620        -1.729529         1.108592
 H         2.625597        -2.143022        -0.424330
 H         4.079300        -1.017840         1.777579
 H         4.271890         1.849499        -0.595846
 H         1.835314         1.652591        -1.301613
 H         2.665694         0.180770        -2.000567
 H         3.412482         1.490059         1.997526
