19
Iteration:  1834
 C         0.091313        -0.441043        -0.665747
 C         1.495811        -0.138217        -0.104392
 C         2.317602        -1.339401         0.489607
 C         3.556603        -0.649442         1.050348
 O         4.312486        -0.288279        -0.290759
 C         3.671462         1.007121        -0.255540
 C         2.401371         0.865974        -1.110443
 C         3.056848         0.827208         1.142627
 O         1.570275         0.796641         1.092676
 H        -0.627462        -0.917399         0.020604
 H        -0.380092         0.529028        -0.910313
 H         0.110132        -1.060037        -1.582682
 H         1.734243        -1.796398         1.304856
 H         2.720282        -2.351239        -0.091575
 H         4.241898        -1.018687         1.870455
 H         4.365520         1.888320        -0.468629
 H         1.913082         1.934937        -1.272438
 H         2.595568         0.364415        -2.088465
 H         3.421195         1.479998         1.990306
