19
Iteration:  3614charge 0 multiplicity 1
 C         0.097866        -0.346772        -0.752953
 C         1.491253        -0.086534        -0.087789
 C         2.275852        -1.370301         0.407729
 C         3.495627        -0.666585         1.025144
 O         4.339453        -0.322234        -0.135842
 C         3.597452         0.941948        -0.282211
 C         2.403662         0.811957        -1.025895
 C         3.074689         0.795728         1.126073
 O         1.659388         0.890575         1.080174
 H        -0.369980        -1.081345        -0.019648
 H        -0.521736         0.626555        -0.657883
 H         0.161865        -0.783620        -1.736045
 H         1.788704        -2.042950         1.100842
 H         2.504095        -2.084001        -0.388884
 H         4.074535        -1.139219         1.854695
 H         4.385514         1.705315        -0.433562
 H         1.947195         1.656671        -1.361446
 H         2.614548         0.428211        -2.104360
 H         3.509367         1.443927         1.882702
