19
Iteration:   379charge 0 multiplicity 1
 C         0.185368        -0.395739        -0.555614
 C         1.540789        -0.051234        -0.137057
 C         2.250552        -1.376654         0.468930
 C         3.526309        -0.729634         0.937354
 O         4.314537        -0.258529        -0.283196
 C         3.621896         1.040694        -0.221945
 C         2.433370         0.894079        -1.124012
 C         2.974447         0.795071         1.224585
 O         1.631510         0.771325         1.018924
 H        -0.374114        -1.054921         0.130511
 H        -0.508229         0.388951        -0.830340
 H         0.361709        -1.069995        -1.385925
 H         1.564749        -1.714695         1.310727
 H         2.461136        -2.204918        -0.145737
 H         4.172338        -1.291212         1.728076
 H         4.342085         1.930019        -0.367032
 H         1.749818         1.804023        -1.046577
 H         2.507612         0.428670        -2.191887
 H         3.507160         1.237761         2.075433
