19
Iteration:  3022charge 0 multiplicity 1
 C         0.215803        -0.434795        -0.727134
 C         1.513831        -0.046482        -0.090087
 C         2.095137        -1.220372         0.441908
 C         3.459162        -0.681526         0.880602
 O         4.355178        -0.307369        -0.229584
 C         3.650101         0.998798        -0.240145
 C         2.419154         0.722558        -1.103802
 C         3.078947         0.796545         1.182500
 O         1.668888         0.857290         1.220899
 H        -0.670052        -0.649183        -0.044231
 H         0.046571         0.351165        -1.375279
 H         0.557222        -1.284118        -1.298870
 H         1.554960        -1.625785         1.315730
 H         2.123278        -2.119121        -0.188829
 H         3.839026        -1.295165         1.686566
 H         4.401857         1.835434        -0.541893
 H         1.723061         1.482598        -1.409504
 H         2.773345         0.140850        -1.923553
 H         3.395268         1.526479         1.960038
