19
Iteration:  4944
 C        -0.037994        -0.155880        -0.520020
 C         1.455784        -0.018984        -0.195059
 C         2.273390        -1.314518         0.355968
 C         3.513438        -0.681524         1.014021
 O         4.546213        -0.221254         0.085915
 C         3.613803         0.847279        -0.266595
 C         2.446753         0.546768        -1.282867
 C         3.061795         0.787562         1.146157
 O         1.586076         0.836102         0.976164
 H        -0.466966         0.034695         0.433824
 H        -0.349657         0.487402        -1.434591
 H        -0.170954        -1.156741        -0.959542
 H         1.599550        -1.746800         1.109245
 H         2.420865        -2.090531        -0.414120
 H         3.896904        -1.290729         1.840479
 H         4.287948         1.774289        -0.372125
 H         2.076742         1.422128        -1.704547
 H         2.614637        -0.113521        -2.183679
 H         3.370772         1.490231         1.841061
