19
Iteration:  3017
 C         0.219195        -0.393005        -0.731624
 C         1.536808        -0.053794        -0.072581
 C         2.129936        -1.272841         0.425960
 C         3.480989        -0.660486         0.891252
 O         4.312141        -0.356485        -0.196726
 C         3.645739         1.038114        -0.264124
 C         2.419932         0.715613        -1.090253
 C         3.064269         0.808784         1.172277
 O         1.656796         0.858596         1.234460
 H        -0.481895        -0.593730         0.037642
 H        -0.111097         0.406411        -1.543980
 H         0.605657        -1.246154        -1.343291
 H         1.538855        -1.616435         1.282596
 H         2.182524        -2.107281        -0.315843
 H         4.126025        -1.282962         1.616379
 H         4.318337         1.771427        -0.627953
 H         1.777452         1.568496        -1.437135
 H         2.662694         0.065951        -2.011867
 H         3.229690         1.588396         1.940924
