19
Iteration:  1033
 C        -0.058892        -0.239631        -0.433599
 C         1.460723        -0.183671        -0.160499
 C         2.339173        -1.361676         0.196424
 C         3.562423        -0.652149         0.924180
 O         4.614461        -0.151452        -0.047009
 C         3.611096         1.018538        -0.305786
 C         2.392531         0.595526        -1.179244
 C         2.964585         0.814880         1.163927
 O         1.533585         0.750366         1.118496
 H        -0.530916        -0.546123         0.489228
 H        -0.406540         0.769513        -0.684054
 H        -0.365853        -0.874263        -1.273335
 H         1.734191        -2.129070         0.875270
 H         2.849702        -1.920960        -0.532090
 H         4.072610        -1.094002         1.872613
 H         4.268997         1.937906        -0.522276
 H         1.908590         1.571050        -1.432476
 H         2.737707         0.030672        -2.057761
 H         3.420570         1.543649         1.822108
