19
Iteration:  2265charge 0 multiplicity 1
 C         0.119114        -0.353662        -0.504638
 C         1.569529        -0.098467        -0.157234
 C         2.284085        -1.339272         0.386235
 C         3.459246        -0.676732         0.958379
 O         4.367960        -0.229111        -0.146068
 C         3.648878         0.989033        -0.272767
 C         2.364853         0.707426        -1.110210
 C         3.045910         0.857089         1.158304
 O         1.609883         0.773192         1.037257
 H        -0.488629        -0.798075         0.298890
 H        -0.206134         0.605803        -0.887033
 H         0.072192        -0.932126        -1.430440
 H         1.581606        -1.801855         1.119559
 H         2.546556        -2.083999        -0.292139
 H         4.055448        -1.195160         1.770177
 H         4.285825         1.740814        -0.676999
 H         1.908551         1.659326        -1.289971
 H         2.629308         0.317533        -2.145387
 H         3.384759         1.531198         1.941692
