19
Iteration:  1903
 C         0.000548        -0.275134        -0.424278
 C         1.502610        -0.084944        -0.182505
 C         2.321128        -1.341873         0.261778
 C         3.518026        -0.634171         0.987765
 O         4.539637        -0.139642        -0.045660
 C         3.651304         0.976505        -0.309820
 C         2.395616         0.625283        -1.157912
 C         2.979706         0.812575         1.153133
 O         1.561119         0.707169         1.016709
 H        -0.496824        -0.689784         0.467774
 H        -0.497874         0.702548        -0.589237
 H        -0.207028        -0.941635        -1.280801
 H         1.675682        -1.821166         0.983441
 H         2.605804        -2.045579        -0.577745
 H         4.057779        -1.171123         1.772858
 H         4.165512         1.809360        -0.566942
 H         1.908097         1.564781        -1.571116
 H         2.766619        -0.003200        -1.984002
 H         3.302484         1.352562         2.034495
