19
Iteration:  4774charge 0 multiplicity 1
 C         0.013261        -0.167230        -0.568686
 C         1.438345        -0.017859        -0.179275
 C         2.268615        -1.319332         0.307195
 C         3.561926        -0.751441         1.010427
 O         4.514539        -0.229175        -0.032497
 C         3.669129         0.882764        -0.205762
 C         2.453518         0.615877        -1.212270
 C         2.964922         0.814547         1.184628
 O         1.594729         0.803654         1.009541
 H        -0.248396         0.377381        -1.508836
 H        -0.360298        -1.215011        -0.582128
 H        -0.604906         0.362976         0.173348
 H         1.637868        -1.773488         1.108684
 H         2.502780        -2.004242        -0.516805
 H         3.903527        -1.499724         1.790039
 H         4.164192         1.820588        -0.451999
 H         2.023508         1.528498        -1.574607
 H         2.759532        -0.055036        -1.968704
 H         3.358057         1.353712         2.028077
