19
Iteration:  2907
 C         0.153414        -0.246702        -0.558079
 C         1.552282        -0.112636        -0.105242
 C         2.207912        -1.321217         0.450885
 C         3.488361        -0.645280         0.982260
 O         4.425402        -0.322640        -0.094389
 C         3.630126         0.996345        -0.285491
 C         2.402323         0.762698        -1.189319
 C         3.039513         0.783305         1.117266
 O         1.589133         0.727794         1.010312
 H        -0.582794        -0.788996         0.026951
 H        -0.306515         0.776676        -0.605459
 H         0.061719        -0.748528        -1.583232
 H         1.624353        -1.857972         1.226502
 H         2.438401        -2.066811        -0.281925
 H         4.065498        -1.051026         1.822609
 H         4.304818         1.770191        -0.518154
 H         1.857152         1.679666        -1.115505
 H         2.603390         0.520540        -2.287058
 H         3.331743         1.452740         1.876641
