19
Iteration:  1226charge 0 multiplicity 1
 C         0.130441        -0.307563        -0.477573
 C         1.518385        -0.118838        -0.096572
 C         2.318875        -1.304499         0.357889
 C         3.590297        -0.636826         0.988945
 O         4.402684        -0.197885        -0.115260
 C         3.629059         1.007539        -0.340352
 C         2.385672         0.729835        -1.162827
 C         2.984884         0.771801         1.132023
 O         1.543716         0.710777         1.026988
 H        -0.448139        -0.878182         0.299856
 H        -0.505798         0.593065        -0.528856
 H         0.081596        -0.726370        -1.514473
 H         1.666567        -1.888363         1.055487
 H         2.687037        -2.118642        -0.411335
 H         4.061244        -1.259810         1.713602
 H         4.297791         1.948408        -0.451125
 H         1.850595         1.690880        -1.343944
 H         2.560601         0.090355        -2.079917
 H         3.230650         1.419457         2.016740
