19
Iteration:  4939
 C        -0.064253        -0.161944        -0.542613
 C         1.468048         0.029696        -0.185648
 C         2.255550        -1.305214         0.338488
 C         3.568448        -0.732350         1.021052
 O         4.585177        -0.235404         0.123456
 C         3.613037         0.896384        -0.294212
 C         2.410085         0.526068        -1.289321
 C         2.996095         0.785779         1.131184
 O         1.608128         0.824470         0.976879
 H        -0.573269         0.137710         0.426546
 H        -0.311050         0.444880        -1.361412
 H        -0.300394        -1.179503        -0.896956
 H         1.674855        -1.771507         1.152085
 H         2.386575        -1.984329        -0.517536
 H         4.015534        -1.197170         1.915401
 H         4.332620         1.649992        -0.486222
 H         1.957694         1.490764        -1.776878
 H         2.700406        -0.188959        -2.034920
 H         3.381129         1.487538         1.994633
