19
Iteration:   367
 C         0.118007        -0.351645        -0.512717
 C         1.578564        -0.106033        -0.136572
 C         2.297842        -1.320740         0.351231
 C         3.521751        -0.656388         0.913283
 O         4.344863        -0.232354        -0.145250
 C         3.609757         1.032653        -0.272859
 C         2.414356         0.794603        -1.154954
 C         3.077424         0.749572         1.190796
 O         1.543615         0.712962         1.081342
 H        -0.385035        -0.837812         0.332932
 H        -0.274407         0.663004        -0.687083
 H         0.043703        -0.882336        -1.473005
 H         1.669814        -1.645151         1.253674
 H         2.361942        -2.120887        -0.392350
 H         4.068088        -1.362743         1.677113
 H         4.292810         1.898064        -0.459893
 H         1.846514         1.752832        -1.358671
 H         2.734269         0.431921        -2.213608
 H         3.327846         1.479533         1.968141
