19
Iteration:  2432
 C         0.199587        -0.381651        -0.680355
 C         1.536546        -0.118823        -0.037359
 C         2.225205        -1.323208         0.487308
 C         3.546658        -0.625667         0.913190
 O         4.288527        -0.329266        -0.221993
 C         3.624880         0.982260        -0.300225
 C         2.318909         0.759518        -1.046033
 C         3.080988         0.817782         1.191596
 O         1.650713         0.872315         1.073887
 H        -0.382593        -1.006195        -0.037024
 H        -0.261005         0.555057        -1.128504
 H         0.633214        -0.929072        -1.570847
 H         1.511486        -1.649002         1.288986
 H         2.281138        -2.184645        -0.229104
 H         4.081685        -1.197010         1.665899
 H         4.320194         1.854229        -0.580828
 H         1.724894         1.682711        -1.344338
 H         2.502008         0.258934        -1.950549
 H         3.480775         1.379333         2.083665
