19
Iteration:  2426charge 0 multiplicity 1
 C         0.176981        -0.358358        -0.676169
 C         1.463221        -0.067940         0.001092
 C         2.235203        -1.338331         0.468553
 C         3.540998        -0.669526         0.929704
 O         4.318831        -0.309910        -0.219840
 C         3.641129         1.035870        -0.284434
 C         2.373569         0.715532        -1.064649
 C         3.115869         0.838174         1.124295
 O         1.618648         0.854585         1.084370
 H        -0.449120        -1.093811        -0.048832
 H        -0.399807         0.440086        -1.071391
 H         0.376903        -1.039371        -1.487930
 H         1.574262        -1.665784         1.256604
 H         2.351673        -2.112941        -0.320249
 H         4.060308        -1.150014         1.788820
 H         4.248347         1.856556        -0.519109
 H         1.894495         1.675581        -1.293610
 H         2.628550         0.096899        -2.017056
 H         3.464948         1.192619         2.063803
