19
Iteration:  2549charge 0 multiplicity 1
 C         0.068504        -0.194970        -0.473355
 C         1.555397        -0.110531        -0.143852
 C         2.349556        -1.389446         0.380876
 C         3.493176        -0.672501         1.006955
 O         4.440906        -0.255356        -0.088339
 C         3.615197         0.962553        -0.288762
 C         2.354722         0.734846        -1.180356
 C         3.018369         0.822449         1.131527
 O         1.581903         0.737629         0.980398
 H        -0.497498        -0.438708         0.413683
 H        -0.326019         0.754936        -0.903548
 H        -0.073535        -0.929965        -1.328776
 H         1.723470        -1.897000         1.158404
 H         2.569993        -2.105751        -0.369319
 H         4.108536        -1.256087         1.788632
 H         4.211124         1.867337        -0.520894
 H         1.765120         1.648521        -1.425814
 H         2.588016         0.214282        -2.164882
 H         3.423770         1.368780         2.045395
