19
Iteration:  1401
 C         0.261381        -0.422127        -0.672687
 C         1.538911        -0.099798        -0.061434
 C         2.274476        -1.348881         0.499795
 C         3.505791        -0.675189         1.036290
 O         4.303813        -0.319702        -0.274753
 C         3.559073         1.063923        -0.267816
 C         2.354122         0.854445        -1.109382
 C         3.038166         0.884610         1.123524
 O         1.643817         0.758894         1.091405
 H        -0.341002        -1.029115        -0.020344
 H        -0.259977         0.489221        -0.897904
 H         0.116657        -1.048622        -1.555146
 H         1.661859        -1.768242         1.327964
 H         2.463376        -2.143133        -0.151688
 H         4.231451        -1.173801         1.688084
 H         4.282579         1.765369        -0.728531
 H         1.739710         1.842495        -1.059439
 H         2.466379         0.490640        -2.149407
 H         3.407772         1.239146         2.062839
