19
Iteration:  2531
 C        -0.095691        -0.152001        -0.391446
 C         1.433320        -0.199108        -0.218284
 C         2.255564        -1.378739         0.250797
 C         3.599076        -0.612800         0.932315
 O         4.540708        -0.159627         0.000558
 C         3.698669         0.939299        -0.294464
 C         2.517576         0.585931        -1.150362
 C         2.952103         0.801512         1.119749
 O         1.557066         0.721530         1.020524
 H        -0.397016        -0.228333         0.657499
 H        -0.355137         0.958952        -0.521404
 H        -0.525236        -0.871478        -1.123791
 H         1.697251        -2.026487         0.921291
 H         2.769277        -2.083542        -0.507476
 H         4.003688        -1.010464         1.825422
 H         4.268072         1.850733        -0.702480
 H         1.979091         1.538149        -1.374832
 H         2.758747         0.219733        -2.072247
 H         3.228027         1.620645         1.744111
