19
Iteration:   190charge 0 multiplicity 1
 C         0.012626        -0.172280        -0.331602
 C         1.513567        -0.147892        -0.294190
 C         2.337975        -1.421644         0.245151
 C         3.528097        -0.666563         0.920338
 O         4.493673        -0.101534        -0.005432
 C         3.571665         0.969828        -0.256235
 C         2.472470         0.612479        -1.204277
 C         2.909098         0.762355         1.175262
 O         1.593419         0.753637         1.002153
 H        -0.318393        -0.464696         0.648485
 H        -0.220823         0.898023        -0.255930
 H        -0.361604        -0.729117        -1.210752
 H         1.710859        -1.944582         0.957399
 H         2.678540        -2.212668        -0.518255
 H         4.072913        -1.156415         1.874976
 H         4.128317         1.811512        -0.639373
 H         1.886030         1.537555        -1.532756
 H         2.862697        -0.055210        -2.074755
 H         3.337942         1.421461         1.910526
