19
Iteration:   486
 C         0.007631        -0.226534        -0.348110
 C         1.502750        -0.112754        -0.207439
 C         2.281041        -1.331525         0.210793
 C         3.454017        -0.656247         0.884077
 O         4.544183        -0.134525         0.022346
 C         3.613915         1.012229        -0.251273
 C         2.422469         0.606534        -1.254026
 C         2.942658         0.781363         1.173605
 O         1.639125         0.718292         1.039224
 H        -0.375398        -0.781258         0.565077
 H        -0.473256         0.792154        -0.437713
 H        -0.299033        -0.827437        -1.243058
 H         1.931768        -2.013846         1.117414
 H         2.604959        -2.027145        -0.614607
 H         3.946996        -1.243024         1.757621
 H         4.218491         1.850373        -0.538231
 H         1.929207         1.409668        -1.711949
 H         2.790310        -0.032321        -2.083704
 H         3.417211         1.433481         1.877278
