19
Iteration:  3251
 C         0.038536        -0.147883        -0.431729
 C         1.459953        -0.151054        -0.182801
 C         2.369645        -1.383322         0.276464
 C         3.481679        -0.700796         1.045608
 O         4.475196        -0.178148         0.060865
 C         3.633262         0.975353        -0.241681
 C         2.386925         0.667097        -1.231681
 C         3.004422         0.807436         1.091834
 O         1.628711         0.690129         0.948864
 H        -0.520613        -0.518740         0.443676
 H        -0.214366         0.876193        -0.485092
 H        -0.353594        -0.563951        -1.410592
 H         1.653294        -1.960871         0.888106
 H         2.663162        -1.908814        -0.619472
 H         4.074795        -1.198615         1.790014
 H         4.298040         1.784655        -0.686480
 H         1.772272         1.570268        -1.520755
 H         2.636393         0.118326        -2.150535
 H         3.155520         1.575989         1.851425
