19
Iteration:  4728charge 0 multiplicity 1
 C         0.162728        -0.298829        -0.680091
 C         1.526125        -0.021786        -0.182860
 C         2.245906        -1.327656         0.461374
 C         3.548731        -0.762676         1.007928
 O         4.335660        -0.367827        -0.150628
 C         3.664082         0.923869        -0.277491
 C         2.383100         0.855620        -1.104934
 C         2.999150         0.756545         1.247083
 O         1.618263         0.871231         1.010841
 H         0.121244        -0.467037        -1.742947
 H        -0.292872        -1.201547        -0.123385
 H        -0.662121         0.419700        -0.597281
 H         1.500952        -1.606337         1.261141
 H         2.452906        -2.092794        -0.314641
 H         4.195542        -1.285057         1.836680
 H         4.423432         1.707859        -0.273056
 H         2.007757         1.909020        -1.130750
 H         2.582701         0.370004        -2.116882
 H         3.364371         1.462558         1.946999
