19
Iteration:  2070charge 0 multiplicity 1
 C        -0.071501        -0.117500        -0.346733
 C         1.386984        -0.057729        -0.150384
 C         2.401578        -1.345380         0.209883
 C         3.632952        -0.668403         0.911436
 O         4.573035        -0.110852         0.028521
 C         3.632752         0.970327        -0.266723
 C         2.431051         0.503567        -1.202055
 C         2.956323         0.748562         1.123842
 O         1.508252         0.712064         0.977035
 H        -0.588413        -0.622950         0.565362
 H        -0.463122         0.935251        -0.407387
 H        -0.239579        -0.878765        -1.155861
 H         1.983486        -2.143597         1.011780
 H         2.581919        -1.865877        -0.663457
 H         4.164809        -1.200074         1.730120
 H         3.882347         1.969548        -0.571293
 H         2.095778         1.392614        -1.797491
 H         2.944121        -0.224609        -1.982018
 H         3.213644         1.394344         1.993842
