19
Iteration:  1439
 C         0.094472        -0.446796        -0.611542
 C         1.500622        -0.018180        -0.057342
 C         2.287119        -1.316463         0.449962
 C         3.569838        -0.681047         0.883405
 O         4.437174        -0.220376        -0.189017
 C         3.613111         0.986060        -0.263862
 C         2.331280         0.731072        -1.072943
 C         3.037955         0.789288         1.176568
 O         1.589536         0.819830         1.050245
 H        -0.612952        -0.824758         0.165626
 H        -0.376085         0.506581        -0.968938
 H         0.342079        -1.059140        -1.487450
 H         1.613638        -1.806865         1.178537
 H         2.547039        -2.016807        -0.418904
 H         4.163780        -1.257708         1.597371
 H         4.067230         1.965660        -0.477797
 H         1.793343         1.588206        -1.418405
 H         2.770048         0.203234        -1.931379
 H         3.367511         1.360378         2.095043
