19
Iteration:  1508charge 0 multiplicity 1
 C         0.038216        -0.259312        -0.394701
 C         1.498557        -0.153939        -0.174483
 C         2.344495        -1.386712         0.276952
 C         3.525747        -0.659378         0.883590
 O         4.467896        -0.095077        -0.028700
 C         3.581541         1.001467        -0.252807
 C         2.425048         0.632082        -1.142563
 C         2.967109         0.801146         1.166871
 O         1.594180         0.750916         0.979830
 H        -0.490454        -0.673260         0.481710
 H        -0.471969         0.700008        -0.497990
 H        -0.155406        -0.856134        -1.299829
 H         1.869520        -1.964634         1.061696
 H         2.786055        -2.078081        -0.559863
 H         4.018048        -1.284880         1.739272
 H         4.110390         1.807996        -0.683074
 H         1.993812         1.493952        -1.546021
 H         2.649292         0.040019        -2.020030
 H         3.444635         1.395982         1.915556
