19
Iteration:  2399
 C         0.001551        -0.265492        -0.460437
 C         1.462051        -0.129604        -0.182554
 C         2.276893        -1.283179         0.281390
 C         3.594436        -0.635141         0.936624
 O         4.511967        -0.205825        -0.044429
 C         3.627228         0.927147        -0.289671
 C         2.385887         0.626201        -1.211411
 C         2.996723         0.809357         1.215165
 O         1.622522         0.803998         1.050271
 H        -0.545638        -0.763857         0.323165
 H        -0.570124         0.688256        -0.712718
 H        -0.251917        -1.036885        -1.255039
 H         1.563190        -1.654764         1.076461
 H         2.522043        -2.041620        -0.491740
 H         4.033042        -1.308179         1.678322
 H         4.246035         1.858299        -0.537234
 H         2.013015         1.601941        -1.674136
 H         2.680159        -0.083176        -1.934802
 H         3.342979         1.355294         2.129528
