19
Iteration:  4224
 C         0.064688        -0.115496        -0.526824
 C         1.447069        -0.090782        -0.075776
 C         2.215112        -1.290014         0.268577
 C         3.567717        -0.705252         0.898439
 O         4.589455        -0.206919         0.023908
 C         3.631926         0.937787        -0.243298
 C         2.386257         0.632833        -1.156719
 C         2.966012         0.758063         1.144574
 O         1.578555         0.710423         1.004326
 H        -0.451680        -0.764364         0.237985
 H        -0.264981         0.866435        -0.480026
 H         0.029987        -0.459090        -1.540031
 H         1.760457        -2.047579         0.860631
 H         2.661563        -1.864466        -0.517867
 H         3.968928        -1.395977         1.619450
 H         4.008852         1.866454        -0.598662
 H         1.901242         1.648597        -1.409244
 H         2.353090         0.040544        -2.159267
 H         3.319594         1.299776         1.996665
