19
Iteration:  4604
 C         0.074037        -0.287948        -0.679359
 C         1.511019        -0.061157        -0.161060
 C         2.234636        -1.328543         0.403166
 C         3.480220        -0.702135         0.985982
 O         4.329126        -0.325077        -0.221595
 C         3.675647         0.970770        -0.183765
 C         2.485218         0.786606        -1.078641
 C         3.057286         0.804949         1.235366
 O         1.634380         0.821869         1.088685
 H        -0.310151        -1.335864        -0.489202
 H        -0.751607         0.254046        -0.349384
 H         0.121705        -0.208700        -1.779752
 H         1.681155        -1.818193         1.211416
 H         2.488106        -2.070182        -0.374363
 H         4.066257        -1.361789         1.548287
 H         4.340740         1.779028        -0.493242
 H         1.907526         1.787619        -1.396105
 H         2.821336         0.258106        -2.030295
 H         3.316830         1.352637         2.185424
