19
Iteration:  4600
 C         0.101191        -0.315307        -0.732612
 C         1.497316        -0.072596        -0.134021
 C         2.222883        -1.262167         0.375083
 C         3.451214        -0.702686         0.944891
 O         4.332645        -0.321064        -0.220497
 C         3.697515         0.961025        -0.204643
 C         2.447918         0.733730        -1.055033
 C         3.058249         0.819041         1.273286
 O         1.655988         0.814909         1.106388
 H        -0.327153        -1.260397        -0.377170
 H        -0.799913         0.326637        -0.444795
 H         0.160901        -0.115817        -1.795378
 H         1.761064        -1.756774         1.240766
 H         2.506582        -2.146048        -0.216465
 H         4.176937        -1.308979         1.549278
 H         4.368156         1.819339        -0.407230
 H         2.012332         1.729760        -1.301724
 H         2.614700         0.299645        -2.018338
 H         3.307283         1.352330         2.157682
