19
Iteration:   614charge 0 multiplicity 1
 C        -0.011853        -0.214205        -0.328497
 C         1.479832        -0.110391        -0.198316
 C         2.356030        -1.324210         0.185547
 C         3.490642        -0.673227         1.032028
 O         4.552622        -0.098404         0.044705
 C         3.643385         0.951356        -0.427450
 C         2.435209         0.594992        -1.225672
 C         2.891330         0.766689         1.116328
 O         1.592465         0.742075         1.047808
 H        -0.084883        -0.680079         0.651686
 H        -0.601710         0.701615        -0.227036
 H        -0.368308        -0.838339        -1.128890
 H         1.896504        -1.989232         0.817314
 H         2.685559        -1.913041        -0.768130
 H         3.864086        -1.336257         1.851362
 H         4.269552         1.794858        -0.618270
 H         1.992695         1.619748        -1.603539
 H         2.625008        -0.073254        -2.097935
 H         3.303369         1.301613         1.959817
