19
Iteration:  4440
 C         0.167671        -0.283457        -0.656862
 C         1.571056        -0.064469        -0.138865
 C         2.180014        -1.342230         0.471175
 C         3.526140        -0.728783         0.942771
 O         4.321310        -0.314229        -0.213534
 C         3.670560         0.992231        -0.254524
 C         2.491292         0.855758        -1.066393
 C         3.004859         0.744811         1.204983
 O         1.559148         0.755352         1.031580
 H        -0.475042        -0.609510         0.207063
 H        -0.294093         0.681351        -0.864484
 H         0.205485        -0.901858        -1.539544
 H         1.607255        -1.574546         1.390274
 H         2.266750        -2.235607        -0.173131
 H         4.190249        -1.190312         1.654810
 H         4.305618         1.898822        -0.472616
 H         2.025096         1.785180        -1.168484
 H         2.664506         0.418268        -2.015452
 H         3.389838         1.352015         2.024082
