19
Iteration:  3399charge 0 multiplicity 1
 C        -0.077020        -0.222512        -0.463423
 C         1.427224        -0.122430        -0.249713
 C         2.225287        -1.361407         0.282438
 C         3.557483        -0.697513         0.954599
 O         4.546771        -0.184709        -0.038982
 C         3.706150         1.038696        -0.259070
 C         2.533024         0.636633        -1.156361
 C         2.979090         0.778462         1.149407
 O         1.548619         0.768311         1.047320
 H        -0.549452        -0.314328         0.582699
 H        -0.499409         0.714494        -0.868701
 H        -0.469244        -0.993677        -1.120232
 H         1.760596        -2.026278         1.099890
 H         2.594015        -2.066794        -0.570723
 H         3.954851        -1.195090         1.889717
 H         4.345395         1.901095        -0.350484
 H         2.056611         1.426273        -1.773498
 H         2.986173        -0.017360        -1.860841
 H         3.396813         1.410623         1.906500
