19
Iteration:  2856
 C         0.193882        -0.366550        -0.621803
 C         1.511094        -0.004363        -0.060515
 C         2.168184        -1.323867         0.373611
 C         3.456338        -0.755140         0.872429
 O         4.423932        -0.290263        -0.167910
 C         3.645911         1.041044        -0.226268
 C         2.391282         0.712616        -1.038853
 C         3.090263         0.772028         1.159082
 O         1.589227         0.905673         1.081255
 H        -0.583186        -0.489274         0.121424
 H        -0.249368         0.268125        -1.441056
 H         0.313186        -1.301982        -1.136078
 H         1.610036        -1.885812         1.148745
 H         2.295067        -2.116670        -0.455316
 H         4.058029        -1.342546         1.639943
 H         4.241791         1.943172        -0.614761
 H         1.876554         1.623549        -1.499545
 H         2.668449         0.021362        -1.772016
 H         3.391354         1.306245         2.069953
