19
Iteration:  1176charge 0 multiplicity 1
 C         0.007788        -0.255010        -0.386870
 C         1.489780        -0.107580        -0.114262
 C         2.324311        -1.360964         0.250133
 C         3.559387        -0.653033         0.857711
 O         4.536068        -0.056334         0.004399
 C         3.601594         0.980660        -0.276973
 C         2.436941         0.596459        -1.273142
 C         2.947161         0.787089         1.169644
 O         1.577935         0.717700         1.039131
 H        -0.442906        -0.510943         0.560362
 H        -0.530708         0.690258        -0.678052
 H        -0.225717        -0.923228        -1.237147
 H         1.742217        -2.032013         1.016512
 H         2.466510        -2.039652        -0.540755
 H         3.985062        -1.348192         1.688716
 H         4.294284         1.868310        -0.602456
 H         1.913291         1.483342        -1.626200
 H         2.781866        -0.117695        -1.988015
 H         3.109631         1.276869         2.159719
