19
Iteration:  1378charge 0 multiplicity 1
 C         0.070330        -0.375399        -0.561182
 C         1.472502        -0.079276        -0.134196
 C         2.328189        -1.306032         0.383633
 C         3.578448        -0.624819         0.930954
 O         4.426745        -0.225706        -0.148009
 C         3.627914         0.943571        -0.261379
 C         2.359274         0.712542        -1.102639
 C         2.997553         0.792986         1.176948
 O         1.587015         0.823841         1.080460
 H        -0.556670        -1.011105         0.065535
 H        -0.423431         0.546154        -0.791733
 H        -0.092643        -0.932301        -1.470909
 H         1.729859        -1.823057         1.094970
 H         2.700116        -2.043415        -0.366595
 H         4.333151        -1.243858         1.512896
 H         4.241130         1.782742        -0.524872
 H         1.797626         1.638900        -1.416328
 H         2.658072         0.155117        -2.027140
 H         3.496178         1.376519         1.986571
