19
Iteration:  2345
 C        -0.016857        -0.229928        -0.442342
 C         1.514967        -0.086464        -0.158664
 C         2.366755        -1.259098         0.315878
 C         3.520771        -0.651533         0.943483
 O         4.476786        -0.212307        -0.051545
 C         3.625386         0.959018        -0.295564
 C         2.406713         0.602113        -1.144557
 C         2.985719         0.795431         1.159080
 O         1.610324         0.733864         0.994492
 H        -0.510587        -0.596893         0.448829
 H        -0.668942         0.676984        -0.572303
 H        -0.271068        -0.973839        -1.261380
 H         1.726616        -1.916396         0.968049
 H         2.656204        -1.895383        -0.562397
 H         3.953811        -1.248616         1.740745
 H         4.270975         1.867533        -0.515352
 H         1.911368         1.517205        -1.698733
 H         2.696267        -0.110312        -1.891058
 H         3.320938         1.554913         1.892667
