19
Iteration:  4941charge 0 multiplicity 1
 C        -0.058174        -0.159174        -0.531891
 C         1.462475         0.015691        -0.188837
 C         2.263907        -1.309851         0.347061
 C         3.549169        -0.714776         1.019669
 O         4.571290        -0.228363         0.110224
 C         3.606600         0.874183        -0.282617
 C         2.422844         0.534152        -1.292941
 C         3.025850         0.786164         1.136726
 O         1.598444         0.827723         0.976518
 H        -0.503282         0.101443         0.439416
 H        -0.323334         0.447151        -1.412763
 H        -0.244256        -1.166593        -0.945060
 H         1.648520        -1.753916         1.126882
 H         2.391379        -2.032116        -0.487505
 H         3.959273        -1.218197         1.867157
 H         4.345294         1.702131        -0.417613
 H         2.015709         1.420676        -1.733921
 H         2.657452        -0.143682        -2.097759
 H         3.385724         1.512450         1.955157
