19
Iteration:  4261charge 0 multiplicity 1
 C        -0.030554        -0.133691        -0.472671
 C         1.485097        -0.081887        -0.228390
 C         2.291647        -1.353041         0.259274
 C         3.532489        -0.719268         0.921539
 O         4.476141        -0.241418        -0.078811
 C         3.616403         1.059938        -0.171180
 C         2.467814         0.656540        -1.173106
 C         2.984564         0.737251         1.200354
 O         1.623433         0.719796         1.038865
 H        -0.614852        -0.082128         0.444553
 H        -0.387956         0.797490        -1.075466
 H        -0.449583        -1.093480        -0.954575
 H         1.783609        -2.009156         0.997180
 H         2.700381        -1.881507        -0.615141
 H         4.017970        -1.322582         1.716803
 H         4.311687         1.866891        -0.364117
 H         2.193524         1.598088        -1.629922
 H         2.829580        -0.035918        -1.904754
 H         3.170592         1.290303         2.157405
