19
Iteration:  1869
 C         0.215779        -0.473780        -0.689103
 C         1.522521        -0.061502        -0.099586
 C         2.251981        -1.310246         0.446979
 C         3.513228        -0.668097         1.019120
 O         4.368471        -0.226285        -0.284467
 C         3.608502         0.980749        -0.248475
 C         2.314743         0.746186        -1.049691
 C         3.095952         0.786993         1.158239
 O         1.605729         0.883940         1.116212
 H        -0.359674        -1.004512         0.050476
 H        -0.277983         0.489598        -0.959405
 H         0.360014        -1.051763        -1.629343
 H         1.511528        -1.503288         1.160362
 H         2.427683        -2.291806        -0.227836
 H         4.035350        -1.294941         1.765063
 H         4.145480         1.787067        -0.579314
 H         1.700036         1.707590        -1.296679
 H         2.480024         0.175373        -1.978092
 H         3.434349         1.241531         2.100391
