19
Iteration:   437charge 0 multiplicity 1
 C         0.036352        -0.257505        -0.537513
 C         1.547982        -0.118197        -0.085552
 C         2.289777        -1.339587         0.289561
 C         3.559189        -0.691740         0.931887
 O         4.459500        -0.188860        -0.074806
 C         3.591696         1.023910        -0.294365
 C         2.351725         0.693457        -1.108508
 C         3.071389         0.770234         1.126907
 O         1.560163         0.738183         1.081950
 H        -0.586883        -0.677735         0.240274
 H        -0.290215         0.730295        -0.813303
 H        -0.058172        -0.864025        -1.438370
 H         1.829820        -1.828501         1.072220
 H         2.606159        -2.056692        -0.451856
 H         4.078545        -1.162947         1.689854
 H         4.206581         1.909333        -0.630979
 H         1.845750         1.622692        -1.522868
 H         2.515267         0.048161        -1.980656
 H         3.477230         1.297360         2.019885
