19
Iteration:   237charge 0 multiplicity 1
 C         0.118744        -0.428922        -0.764534
 C         1.439241        -0.019362        -0.103490
 C         2.280515        -1.322794         0.409506
 C         3.566497        -0.653429         0.947689
 O         4.409478        -0.296329        -0.187742
 C         3.616069         0.981007        -0.318254
 C         2.288020         0.813409        -1.100317
 C         3.118151         0.835376         1.165940
 O         1.625894         0.809807         1.272005
 H        -0.469332        -0.959641        -0.030590
 H        -0.554541         0.351980        -1.121559
 H         0.419079        -1.141699        -1.541271
 H         1.608133        -1.667731         1.197251
 H         2.340714        -2.086046        -0.272385
 H         4.043263        -1.394722         1.668269
 H         4.498650         1.692084        -0.663442
 H         1.838211         1.826395        -1.273023
 H         2.483236         0.166005        -2.073417
 H         3.416024         1.314219         2.093571
