19
Iteration:  1024
 C        -0.000970        -0.266612        -0.453519
 C         1.470088        -0.137078        -0.085053
 C         2.333532        -1.323274         0.245715
 C         3.544717        -0.613232         0.908213
 O         4.567020        -0.163813        -0.087607
 C         3.628719         0.968237        -0.260205
 C         2.383284         0.631111        -1.118154
 C         2.967406         0.818457         1.122103
 O         1.572841         0.745791         1.054876
 H        -0.634337        -0.660635         0.282549
 H        -0.362601         0.697939        -0.838596
 H        -0.072143        -1.022311        -1.238305
 H         1.823879        -2.068242         0.979024
 H         2.610427        -1.969450        -0.645383
 H         4.068171        -1.273388         1.751274
 H         3.958622         1.901856        -0.649457
 H         1.836059         1.602590        -1.385310
 H         2.701787         0.067144        -2.002415
 H         3.232080         1.259399         2.126677
