19
Iteration:   743
 C        -0.117495        -0.305639        -0.351255
 C         1.477633        -0.058565        -0.195875
 C         2.318836        -1.355976         0.240921
 C         3.568143        -0.653427         0.937692
 O         4.549780        -0.128478        -0.053163
 C         3.636997         1.002995        -0.270024
 C         2.463550         0.626403        -1.221710
 C         2.950525         0.768011         1.183315
 O         1.602963         0.743317         1.014240
 H        -0.588129        -0.682896         0.513476
 H        -0.570337         0.676761        -0.563499
 H        -0.354899        -1.000739        -1.153347
 H         1.752840        -1.943731         0.955129
 H         2.593699        -2.134985        -0.541501
 H         3.959326        -1.150421         1.737687
 H         4.319790         1.930976        -0.477034
 H         1.980786         1.506596        -1.555341
 H         2.888469         0.004183        -1.927241
 H         3.316571         1.448710         1.919395
