19
Iteration:  4963charge 0 multiplicity 1
 C         0.068232        -0.245209        -0.524597
 C         1.555907        -0.100739        -0.190333
 C         2.198901        -1.336311         0.421587
 C         3.439830        -0.666801         1.027026
 O         4.419468        -0.337391        -0.058097
 C         3.691055         0.977188        -0.298769
 C         2.506848         0.617976        -1.120469
 C         2.944001         0.860398         1.113388
 O         1.614423         0.863856         0.947010
 H        -0.425184        -0.301644         0.454736
 H        -0.189154         0.700961        -1.057330
 H        -0.216166        -1.013167        -1.268054
 H         1.595742        -1.816019         1.188671
 H         2.544245        -2.053293        -0.359873
 H         3.933282        -1.065402         1.878899
 H         4.486424         1.667812        -0.678256
 H         1.984388         1.516025        -1.437241
 H         2.914285         0.071388        -1.964498
 H         3.286767         1.365144         2.047740
