19
Iteration:   757charge 0 multiplicity 1
 C        -0.049046        -0.233683        -0.350563
 C         1.421886        -0.190132        -0.109845
 C         2.347172        -1.319593         0.214894
 C         3.569016        -0.704438         0.868090
 O         4.546200        -0.106349         0.071664
 C         3.619176         0.969608        -0.258525
 C         2.433746         0.587511        -1.163321
 C         3.003808         0.835580         1.085698
 O         1.560893         0.772400         0.973192
 H        -0.449065        -0.646827         0.587559
 H        -0.415341         0.751571        -0.411605
 H        -0.357342        -0.807904        -1.197385
 H         1.971252        -2.099724         0.836738
 H         2.684565        -1.651502        -0.841439
 H         4.088986        -1.468723         1.490267
 H         4.005365         1.916347        -0.648504
 H         2.064797         1.499433        -1.723446
 H         2.644884        -0.120002        -2.050658
 H         3.217795         1.409679         1.972896
