19
Iteration:  2327
 C         0.130681        -0.361107        -0.555692
 C         1.492713        -0.000327        -0.098793
 C         2.213670        -1.379385         0.424248
 C         3.560339        -0.683907         0.937009
 O         4.467334        -0.199191        -0.136498
 C         3.605744         0.970923        -0.297287
 C         2.367130         0.674977        -1.205695
 C         3.034442         0.747770         1.170813
 O         1.596298         0.860326         1.111308
 H        -0.602136        -0.935722         0.094894
 H        -0.350678         0.562104        -0.895455
 H         0.301802        -1.008870        -1.398859
 H         1.565543        -1.678647         1.218826
 H         2.240844        -2.143384        -0.448125
 H         4.042220        -1.198418         1.767297
 H         4.154824         1.852909        -0.643087
 H         1.884464         1.637890        -1.461095
 H         2.637648         0.087392        -2.101945
 H         3.568636         1.398010         1.943136
