19
Iteration:  1636charge 0 multiplicity 1
 C         0.011128        -0.172526        -0.342390
 C         1.449973        -0.160275        -0.141820
 C         2.313936        -1.442581         0.189342
 C         3.608513        -0.672078         0.877980
 O         4.510346        -0.054828         0.115019
 C         3.621364         0.994431        -0.329083
 C         2.331445         0.551774        -1.243443
 C         2.997381         0.819906         1.170902
 O         1.598489         0.744207         0.979572
 H        -0.457584        -0.596835         0.616815
 H        -0.322129         0.843286        -0.546847
 H        -0.305362        -0.856906        -1.145630
 H         1.825535        -2.047663         0.925109
 H         2.723120        -2.052362        -0.759381
 H         4.071820        -1.336321         1.611724
 H         4.090831         1.954741        -0.501911
 H         1.869350         1.533217        -1.701557
 H         2.800187        -0.120027        -2.044554
 H         3.275688         1.403134         2.021696
