19
Iteration:   460
 C        -0.090408        -0.137728        -0.352435
 C         1.490217        -0.149910        -0.212646
 C         2.316013        -1.425445         0.285582
 C         3.625681        -0.645284         0.954790
 O         4.527235        -0.097550        -0.082748
 C         3.598644         0.949594        -0.209933
 C         2.471297         0.642194        -1.174020
 C         2.927292         0.721813         1.208352
 O         1.559126         0.716237         0.911381
 H        -0.396649        -0.540788         0.592584
 H        -0.414414         0.922956        -0.402603
 H        -0.599602        -0.658788        -1.180874
 H         1.984281        -2.083845         0.987319
 H         2.704410        -2.014141        -0.613772
 H         4.201855        -1.046319         1.719597
 H         4.184718         1.838611        -0.475525
 H         2.033152         1.512599        -1.747976
 H         2.872452         0.007849        -1.938349
 H         3.298446         1.472308         1.964974
