19
Iteration:   410charge 0 multiplicity 1
 C         0.125278        -0.451038        -0.689625
 C         1.519401        -0.049394        -0.063890
 C         2.238818        -1.225138         0.378392
 C         3.532832        -0.715184         0.931814
 O         4.355961        -0.299480        -0.251906
 C         3.615605         0.995563        -0.248018
 C         2.353215         0.788400        -1.085703
 C         3.097994         0.839973         1.216256
 O         1.616474         0.815378         1.181201
 H        -0.565842        -1.075486        -0.073753
 H        -0.519942         0.268405        -1.281595
 H         0.479954        -1.038683        -1.582337
 H         1.714525        -1.771092         1.282208
 H         2.624424        -2.062039        -0.288215
 H         4.208161        -1.370166         1.670355
 H         4.231676         1.855236        -0.520663
 H         1.894355         1.784555        -1.117235
 H         2.331547         0.401792        -2.162541
 H         3.557408         1.333277         2.101808
