19
Iteration:  2852charge 0 multiplicity 1
 C         0.157701        -0.358381        -0.598254
 C         1.515228         0.017099        -0.089936
 C         2.184158        -1.330097         0.332549
 C         3.441191        -0.769461         0.881727
 O         4.446340        -0.246427        -0.140317
 C         3.699701         1.025796        -0.225524
 C         2.347634         0.685094        -1.079694
 C         3.035832         0.767036         1.179211
 O         1.613558         0.889959         1.092299
 H        -0.501880        -0.425407         0.270142
 H        -0.228495         0.305528        -1.404140
 H         0.279940        -1.345337        -1.171024
 H         1.539235        -1.775847         1.146763
 H         2.323034        -2.096450        -0.396212
 H         4.070531        -1.276329         1.615129
 H         4.285730         1.848224        -0.544900
 H         1.917075         1.542397        -1.485479
 H         2.605501        -0.062133        -1.871665
 H         3.489095         1.326055         1.975775
