19
Iteration:  1824charge 0 multiplicity 1
 C         0.036833        -0.369292        -0.598514
 C         1.541696        -0.106477        -0.169649
 C         2.325268        -1.358807         0.441419
 C         3.546243        -0.626043         0.999690
 O         4.400042        -0.294274        -0.227936
 C         3.606897         1.049308        -0.280257
 C         2.392555         0.725458        -1.061685
 C         3.025725         0.797488         1.232868
 O         1.596067         0.806910         1.021079
 H        -0.392179        -0.882490         0.249103
 H        -0.495456         0.540410        -0.929386
 H         0.056409        -1.023967        -1.495713
 H         1.731066        -1.750377         1.220446
 H         2.665847        -2.115675        -0.431072
 H         4.152252        -1.042915         1.862292
 H         4.111101         1.937920        -0.531757
 H         1.774584         1.720925        -1.189310
 H         2.664212         0.319028        -2.053996
 H         3.407092         1.527300         2.003317
