19
Iteration:  3282
 C         0.056800        -0.376889        -0.669416
 C         1.477867        -0.032348        -0.112886
 C         2.222919        -1.283682         0.415911
 C         3.492135        -0.682387         0.950419
 O         4.487749        -0.262829        -0.203574
 C         3.717940         0.959763        -0.176952
 C         2.400672         0.681139        -1.069411
 C         3.043308         0.808818         1.169787
 O         1.585024         0.841029         1.074901
 H        -0.371767        -1.200982        -0.002343
 H        -0.638493         0.442359        -0.611480
 H         0.183633        -0.600563        -1.757558
 H         1.594190        -1.769315         1.139257
 H         2.266299        -2.121876        -0.275232
 H         4.041378        -1.262210         1.689653
 H         4.225358         1.833943        -0.636013
 H         1.932713         1.722056        -1.472941
 H         2.706285         0.121637        -1.923619
 H         3.275992         1.467904         1.985463
