19
Iteration:  3414
 C         0.041592        -0.230733        -0.528513
 C         1.538462        -0.104505        -0.160690
 C         2.272416        -1.338565         0.361656
 C         3.515788        -0.661593         0.962507
 O         4.482357        -0.256280        -0.025089
 C         3.598054         0.961464        -0.206367
 C         2.370015         0.705761        -1.186167
 C         3.014434         0.775678         1.147145
 O         1.646014         0.766789         0.965476
 H        -0.526860        -0.549266         0.347991
 H        -0.370195         0.701986        -0.935812
 H        -0.043767        -1.032364        -1.332948
 H         1.575664        -1.708526         1.104716
 H         2.521181        -2.016278        -0.427385
 H         4.030244        -1.273030         1.670701
 H         4.114130         1.866368        -0.573356
 H         1.867745         1.716917        -1.326462
 H         2.635212         0.250068        -2.151436
 H         3.255170         1.357232         2.067633
