19
Iteration:  2241
 C        -0.122617        -0.278474        -0.425745
 C         1.420895        -0.039041        -0.164167
 C         2.311119        -1.343627         0.328725
 C         3.627899        -0.697916         0.889463
 O         4.593886        -0.156149         0.001339
 C         3.644355         1.011700        -0.224278
 C         2.403392         0.572295        -1.225580
 C         2.967110         0.748565         1.125484
 O         1.579924         0.823421         1.010650
 H        -0.495537        -0.732296         0.528207
 H        -0.536237         0.679492        -0.704315
 H        -0.327542        -0.900246        -1.258023
 H         1.886763        -2.062999         0.973569
 H         2.530685        -1.870088        -0.641055
 H         4.063853        -1.350513         1.705448
 H         4.204588         1.893244        -0.497802
 H         2.117522         1.405082        -1.751585
 H         2.792968        -0.089455        -2.020122
 H         3.275227         1.449349         1.993598
