19
Iteration:  3583charge 0 multiplicity 1
 C         0.181017        -0.353850        -0.698404
 C         1.517607         0.013761        -0.115693
 C         2.225161        -1.275471         0.487632
 C         3.538166        -0.664109         0.974445
 O         4.315786        -0.332588        -0.212168
 C         3.630121         0.962441        -0.292665
 C         2.420491         0.841427        -1.105128
 C         3.008895         0.745125         1.252756
 O         1.620878         0.754450         1.048544
 H        -0.345256        -0.660454         0.279233
 H        -0.334475         0.472924        -1.214182
 H         0.315393        -1.234800        -1.306882
 H         1.609604        -1.562329         1.332185
 H         2.321742        -2.104165        -0.245288
 H         4.077873        -1.191359         1.837628
 H         4.355530         1.754466        -0.492781
 H         1.942147         1.816121        -1.387093
 H         2.652750         0.181124        -2.131390
 H         3.472207         1.320467         2.072290
