19
Iteration:  4016charge 0 multiplicity 1
 C         0.196438        -0.309222        -0.702465
 C         1.554704        -0.046434        -0.115135
 C         2.226982        -1.323286         0.547828
 C         3.555109        -0.734143         0.893255
 O         4.326734        -0.327499        -0.239079
 C         3.676011         0.971759        -0.223831
 C         2.471428         0.866302        -1.052413
 C         2.960586         0.828495         1.207237
 O         1.549665         0.776428         1.033168
 H        -0.229559        -1.198930        -0.077762
 H        -0.675110         0.415457        -0.464380
 H         0.168922        -0.540876        -1.759725
 H         1.581355        -1.544069         1.406827
 H         2.210685        -2.248794        -0.047950
 H         4.042227        -1.379334         1.647531
 H         4.428434         1.673803        -0.638408
 H         1.907900         1.718724        -1.361657
 H         2.799768         0.420184        -2.032822
 H         3.361944         1.235089         2.129215
