19
Iteration:  4565charge 0 multiplicity 1
 C         0.072359        -0.215833        -0.669775
 C         1.448367        -0.012620        -0.083634
 C         2.243224        -1.418394         0.383501
 C         3.496452        -0.782922         0.954310
 O         4.449888        -0.247374        -0.123131
 C         3.637736         0.971726        -0.259406
 C         2.378559         0.786655        -1.173525
 C         3.039593         0.770688         1.197007
 O         1.644535         0.779391         1.094415
 H        -0.551124        -0.803187        -0.008515
 H        -0.214453         0.819908        -0.992355
 H         0.235907        -0.949215        -1.474090
 H         1.607009        -1.859539         1.180117
 H         2.658921        -2.165535        -0.330510
 H         4.034484        -1.374922         1.790421
 H         4.216557         1.906957        -0.279112
 H         2.001117         1.758586        -1.284969
 H         2.593554         0.302480        -2.127488
 H         3.426173         1.433966         1.969380
