19
Iteration:  1258
 C         0.069738        -0.504988        -0.740156
 C         1.531975        -0.128839        -0.091975
 C         2.233747        -1.313006         0.478478
 C         3.643837        -0.658712         0.947017
 O         4.273738        -0.234701        -0.241555
 C         3.649590         1.033307        -0.256009
 C         2.361111         0.811264        -1.077107
 C         3.080894         0.777657         1.208159
 O         1.652298         0.893829         1.136208
 H        -0.495989        -1.263186        -0.149674
 H        -0.527074         0.356149        -1.016145
 H         0.263508        -1.118848        -1.637666
 H         1.672466        -1.622415         1.347271
 H         2.583604        -2.223148        -0.153972
 H         4.123250        -1.394016         1.523399
 H         4.303363         1.883571        -0.515102
 H         1.721555         1.728971        -1.215565
 H         2.602460         0.375287        -2.098513
 H         3.400021         1.313934         2.146137
