19
Iteration:  2460
 C         0.082045        -0.359013        -0.682687
 C         1.546468        -0.085012        -0.131193
 C         2.292262        -1.333003         0.540113
 C         3.606691        -0.614629         1.028617
 O         4.284623        -0.372183        -0.214743
 C         3.644104         0.974412        -0.305917
 C         2.378415         0.880754        -1.107192
 C         3.081464         0.814431         1.114749
 O         1.584426         0.763812         1.070637
 H        -0.458123        -0.960708         0.120746
 H        -0.489003         0.510400        -0.856363
 H         0.366013        -0.949949        -1.537009
 H         1.577485        -1.609823         1.351000
 H         2.399967        -2.202518        -0.049508
 H         4.216896        -1.139343         1.842332
 H         4.331725         1.753007        -0.414601
 H         1.914378         1.844852        -1.186312
 H         2.518515         0.504163        -2.222221
 H         3.452274         1.419130         1.939355
