19
Iteration:  1193charge 0 multiplicity 1
 C        -0.094909        -0.217735        -0.383086
 C         1.370048        -0.193844        -0.213665
 C         2.341378        -1.353125         0.180223
 C         3.534448        -0.653431         0.968036
 O         4.614662        -0.072514         0.020503
 C         3.593774         1.057265        -0.280379
 C         2.411788         0.533201        -1.093149
 C         3.054712         0.759554         1.080814
 O         1.582854         0.754121         1.010931
 H        -0.492358        -0.759125         0.533785
 H        -0.421712         0.814673        -0.516199
 H        -0.327725        -0.890329        -1.239701
 H         1.749030        -2.035036         0.787629
 H         2.768586        -1.932360        -0.741470
 H         4.016829        -1.145550         1.738132
 H         4.111329         2.040980        -0.306662
 H         2.010017         1.376394        -1.688170
 H         2.747570        -0.192905        -1.885271
 H         3.461962         1.413185         1.874708
