19
Iteration:  1256
 C         0.073561        -0.501155        -0.730352
 C         1.522438        -0.144852        -0.119313
 C         2.236216        -1.321052         0.477700
 C         3.643184        -0.649005         0.938067
 O         4.270638        -0.239515        -0.237041
 C         3.656627         1.044667        -0.256057
 C         2.359183         0.805786        -1.086570
 C         3.085752         0.794674         1.219638
 O         1.653194         0.889905         1.140518
 H        -0.512708        -1.195089        -0.123888
 H        -0.565990         0.297167        -0.997802
 H         0.270691        -1.030813        -1.633231
 H         1.679525        -1.637453         1.288283
 H         2.563410        -2.240379        -0.113488
 H         4.144748        -1.410574         1.571188
 H         4.258189         1.835648        -0.466829
 H         1.771399         1.738564        -1.175315
 H         2.606966         0.361455        -2.082029
 H         3.393603         1.308962         2.124633
