19
Iteration:  1172charge 0 multiplicity 1
 C         0.046206        -0.245209        -0.421781
 C         1.461165        -0.131028        -0.138131
 C         2.357835        -1.350646         0.264916
 C         3.561509        -0.670219         0.881664
 O         4.510155        -0.073153        -0.030324
 C         3.563756         0.960138        -0.298863
 C         2.442749         0.628951        -1.242372
 C         2.967524         0.804965         1.184156
 O         1.565968         0.734653         1.057408
 H        -0.318698        -0.586531         0.619698
 H        -0.508596         0.673783        -0.704530
 H        -0.175226        -1.041277        -1.204003
 H         1.683025        -1.850126         1.025940
 H         2.472136        -2.198082        -0.456302
 H         3.977511        -1.291990         1.590326
 H         4.355639         1.820169        -0.458757
 H         1.938719         1.530220        -1.598700
 H         2.780935        -0.083377        -2.029082
 H         3.086823         1.260961         2.189251
