19
Iteration:  4929
 C        -0.045763        -0.155411        -0.545697
 C         1.438291        -0.061862        -0.166134
 C         2.234807        -1.284358         0.310560
 C         3.576632        -0.719965         1.007226
 O         4.611601        -0.261551         0.135663
 C         3.706314         0.953398        -0.331187
 C         2.405331         0.553476        -1.195347
 C         2.939245         0.771267         1.104373
 O         1.608061         0.851532         0.981624
 H        -0.861065         0.216689         0.157277
 H        -0.307640         0.504818        -1.325898
 H        -0.413942        -1.187966        -0.608866
 H         1.687544        -1.893647         1.037009
 H         2.478407        -1.958732        -0.531717
 H         3.968294        -1.266156         1.858823
 H         4.139758         1.773870        -0.932293
 H         2.049798         1.372308        -1.896238
 H         2.718117        -0.256520        -1.767227
 H         3.292957         1.354211         2.096854
