19
Iteration:   171
 C        -0.133257        -0.211730        -0.366082
 C         1.459815        -0.090861        -0.153906
 C         2.331008        -1.268222         0.212917
 C         3.542490        -0.678407         0.957595
 O         4.584575        -0.169451         0.051541
 C         3.705561         0.963280        -0.258612
 C         2.387243         0.599653        -1.250696
 C         2.989695         0.829230         1.107880
 O         1.574224         0.669627         0.986237
 H        -0.534219        -0.635248         0.532962
 H        -0.572537         0.800547        -0.373641
 H        -0.309201        -0.854137        -1.242208
 H         1.934727        -2.041292         0.856818
 H         2.665186        -1.691830        -0.667762
 H         4.042998        -1.221812         1.809638
 H         4.050607         2.082399        -0.527780
 H         1.979672         1.477926        -1.780848
 H         2.819619        -0.160502        -2.030497
 H         3.311427         1.298805         1.994976
