19
Iteration:  3659charge 0 multiplicity 1
 C        -0.024701        -0.086873        -0.377725
 C         1.508152        -0.071413        -0.237823
 C         2.233344        -1.462886         0.285977
 C         3.501826        -0.668343         0.894419
 O         4.523783        -0.140312         0.049777
 C         3.612276         1.034664        -0.218166
 C         2.542737         0.536747        -1.199744
 C         2.934158         0.727187         1.116400
 O         1.594926         0.767807         0.970003
 H        -0.328534        -0.943682         0.320494
 H        -0.482074         0.881353        -0.145416
 H        -0.216154        -0.427778        -1.387648
 H         1.632002        -2.061454         0.930311
 H         2.569268        -2.167191        -0.487480
 H         3.945102        -1.129739         1.825159
 H         4.046545         1.994793        -0.490613
 H         2.162419         1.335367        -1.702367
 H         2.926985        -0.052403        -2.101593
 H         3.468377         1.199689         1.926777
