19
Iteration:  2376charge 0 multiplicity 1
 C        -0.002773        -0.125024        -0.276536
 C         1.498427        -0.186636        -0.184834
 C         2.355374        -1.459356         0.291358
 C         3.464222        -0.675641         0.956366
 O         4.565027        -0.100149         0.052270
 C         3.635841         0.938221        -0.318691
 C         2.439489         0.666742        -1.219089
 C         2.919479         0.750184         1.061660
 O         1.590136         0.758956         0.910136
 H        -0.386403        -0.536911         0.637265
 H        -0.370388         0.926992        -0.465348
 H        -0.480415        -0.856013        -1.002427
 H         1.660658        -2.163915         0.842779
 H         2.761896        -1.858689        -0.602002
 H         3.830836        -1.218742         1.856919
 H         4.155710         1.928194        -0.405207
 H         1.921484         1.597793        -1.517549
 H         2.687029         0.039828        -2.052633
 H         3.337848         1.472059         1.747720
