19
Iteration:  2462charge 0 multiplicity 1
 C         0.071013        -0.358124        -0.652504
 C         1.544854        -0.077192        -0.132815
 C         2.276328        -1.344444         0.515218
 C         3.596919        -0.581814         1.004220
 O         4.300030        -0.380003        -0.200299
 C         3.657725         0.978220        -0.299913
 C         2.384363         0.877902        -1.096211
 C         3.070510         0.802241         1.116664
 O         1.587417         0.755492         1.055963
 H        -0.530605        -0.947119         0.058891
 H        -0.550720         0.539256        -0.838900
 H         0.407644        -0.981429        -1.529141
 H         1.607276        -1.632879         1.396019
 H         2.411615        -2.199019        -0.072063
 H         4.248291        -1.072431         1.819934
 H         4.414378         1.770326        -0.417910
 H         1.862932         1.792971        -1.210884
 H         2.559445         0.457909        -2.123471
 H         3.462187         1.473246         1.930425
