19
Iteration:  1845charge 0 multiplicity 1
 C         0.175945        -0.453300        -0.686805
 C         1.518340        -0.080898        -0.066111
 C         2.303670        -1.328724         0.598856
 C         3.568328        -0.612949         0.944123
 O         4.247043        -0.304819        -0.229915
 C         3.641425         0.970511        -0.291301
 C         2.388552         0.902204        -1.132319
 C         3.031478         0.845793         1.122666
 O         1.612765         0.739723         1.115413
 H        -0.505028        -1.028533        -0.046635
 H        -0.295120         0.484222        -1.057566
 H         0.460324        -1.034654        -1.591344
 H         1.621736        -1.659806         1.388597
 H         2.468105        -2.130852        -0.348483
 H         4.182692        -1.281249         1.604804
 H         4.477934         1.747574        -0.469911
 H         1.672840         1.850119        -1.236045
 H         2.626092         0.499220        -2.144304
 H         3.311458         1.456923         2.029702
