19
Iteration:  3376
 C         0.004153        -0.137541        -0.349491
 C         1.448580        -0.050670        -0.217778
 C         2.289803        -1.281086         0.208808
 C         3.530652        -0.711230         0.877964
 O         4.528428        -0.131730         0.065808
 C         3.577063         0.974457        -0.236485
 C         2.498659         0.499585        -1.227944
 C         2.939425         0.763055         1.201869
 O         1.605175         0.742667         0.979072
 H        -0.625939        -0.245057         0.558900
 H        -0.369904         0.690070        -1.009261
 H        -0.059033        -0.996726        -0.985977
 H         1.929648        -2.073383         0.927093
 H         2.493733        -1.901728        -0.750070
 H         3.931232        -1.285668         1.758692
 H         4.157301         1.841212        -0.474107
 H         2.075897         1.272934        -1.812008
 H         2.915559        -0.239410        -1.932705
 H         3.270866         1.263701         2.084837
