19
Iteration:   755
 C        -0.070468        -0.252683        -0.342345
 C         1.424858        -0.183882        -0.124483
 C         2.336860        -1.318597         0.229154
 C         3.574971        -0.709443         0.866103
 O         4.548739        -0.108247         0.062563
 C         3.601151         0.973900        -0.258386
 C         2.453497         0.597064        -1.169166
 C         2.991410         0.829384         1.100194
 O         1.577183         0.766335         0.975475
 H        -0.456385        -0.631724         0.560494
 H        -0.430281         0.755189        -0.464273
 H        -0.382306        -0.799220        -1.202999
 H         1.981433        -2.066991         0.861931
 H         2.684147        -1.633377        -0.832805
 H         4.045862        -1.396774         1.453650
 H         4.148030         1.929434        -0.643586
 H         2.121246         1.457796        -1.713054
 H         2.631719        -0.057493        -1.982332
 H         3.212488         1.460429         1.911158
