19
Iteration:  4222charge 0 multiplicity 1
 C         0.067116        -0.119585        -0.533756
 C         1.457491        -0.088380        -0.093455
 C         2.232751        -1.292740         0.293500
 C         3.558865        -0.694750         0.896120
 O         4.578144        -0.222680         0.013394
 C         3.638471         0.930296        -0.243201
 C         2.378907         0.647140        -1.156282
 C         2.981323         0.762812         1.153381
 O         1.565449         0.708186         1.002110
 H        -0.386633        -0.818024         0.187244
 H        -0.321800         0.884418        -0.478100
 H         0.006136        -0.427328        -1.513797
 H         1.699824        -2.041516         0.931500
 H         2.655695        -1.914942        -0.539534
 H         3.998428        -1.429642         1.605766
 H         4.060061         1.957811        -0.564356
 H         1.820474         1.615887        -1.371657
 H         2.396092         0.096374        -2.135641
 H         3.315655         1.342635         2.002883
