19
Iteration:  3952
 C        -0.023114        -0.138328        -0.409689
 C         1.477885        -0.134175        -0.216974
 C         2.333163        -1.271707         0.188036
 C         3.467013        -0.704944         0.999265
 O         4.609905        -0.226790         0.064851
 C         3.590870         0.884366        -0.248257
 C         2.430626         0.667585        -1.264961
 C         2.964926         0.765523         1.147304
 O         1.560508         0.761726         1.022235
 H        -0.514544        -0.587695         0.550546
 H        -0.265727         0.963056        -0.431315
 H        -0.296152        -0.607577        -1.333969
 H         1.774505        -2.075845         0.769656
 H         2.843860        -1.760665        -0.688563
 H         3.900807        -1.128242         1.907779
 H         4.227712         1.663547        -0.638708
 H         2.042621         1.618079        -1.618645
 H         2.770274        -0.129794        -2.057747
 H         3.211356         1.437458         1.977820
