19
Iteration:  4075
 C        -0.068765        -0.202859        -0.514588
 C         1.497507        -0.066523        -0.159474
 C         2.249736        -1.307660         0.259875
 C         3.523739        -0.701361         0.900870
 O         4.560829        -0.210508        -0.031532
 C         3.714045         0.982734        -0.244346
 C         2.495443         0.647150        -1.145014
 C         2.938373         0.760815         1.135214
 O         1.553634         0.747655         1.069789
 H        -0.602254        -0.286669         0.418750
 H        -0.427660         0.622028        -1.070496
 H        -0.284427        -1.136312        -1.123632
 H         1.703247        -1.868980         1.065194
 H         2.436769        -1.943711        -0.618337
 H         3.945520        -1.299285         1.707509
 H         4.263156         1.890551        -0.420887
 H         2.053680         1.611269        -1.230316
 H         2.837357         0.090088        -2.029478
 H         3.362048         1.154202         2.063025
