19
Iteration:  2581charge 0 multiplicity 1
 C         0.100604        -0.483239        -0.739729
 C         1.464182        -0.009308        -0.021060
 C         2.195892        -1.312375         0.476067
 C         3.461822        -0.728686         0.851644
 O         4.361211        -0.331972        -0.273577
 C         3.670698         0.947747        -0.252950
 C         2.471386         0.785553        -1.065850
 C         3.074007         0.932278         1.189338
 O         1.633113         0.890025         1.190582
 H        -0.442907        -1.154564        -0.099680
 H        -0.552749         0.317595        -1.014805
 H         0.656431        -1.095741        -1.474888
 H         1.591568        -1.670480         1.358313
 H         2.197164        -2.073277        -0.236876
 H         4.146111        -1.246903         1.644589
 H         4.176543         1.867170        -0.526133
 H         1.878707         1.662615        -1.392485
 H         2.814607         0.211214        -2.053133
 H         3.674244         1.449254         2.039247
