19
Iteration:  4798
 C        -0.007325        -0.070642        -0.444146
 C         1.509923        -0.150450        -0.222721
 C         2.253485        -1.457043         0.358521
 C         3.503888        -0.674333         0.975307
 O         4.483123        -0.218120         0.029833
 C         3.702622         1.009739        -0.252901
 C         2.516473         0.641682        -1.200112
 C         2.896158         0.743886         1.113880
 O         1.623337         0.761569         0.901194
 H        -0.249138         0.838866        -1.106934
 H        -0.494293        -0.937167        -0.825735
 H        -0.524858         0.141270         0.534651
 H         1.642825        -1.844899         1.172233
 H         2.590623        -2.226987        -0.342541
 H         3.838422        -1.182020         1.863753
 H         4.264242         1.940266        -0.511393
 H         1.893031         1.428157        -1.493592
 H         2.860011         0.142849        -2.046860
 H         3.293959         1.260462         2.084364
