19
Iteration:  3686charge 0 multiplicity 1
 C        -0.035115        -0.155681        -0.491453
 C         1.491776        -0.107183        -0.204995
 C         2.364134        -1.296988         0.250372
 C         3.564012        -0.650131         0.984051
 O         4.491921        -0.260796        -0.002293
 C         3.657800         0.906490        -0.229878
 C         2.414200         0.618143        -1.145461
 C         2.923230         0.769649         1.184532
 O         1.576762         0.775732         0.997281
 H        -0.513268        -0.387817         0.410325
 H        -0.276302         0.902645        -0.718716
 H        -0.329370        -0.822093        -1.325570
 H         1.801783        -2.059192         0.859762
 H         2.800751        -1.836158        -0.601475
 H         4.001050        -1.306737         1.710629
 H         4.194403         1.834485        -0.531692
 H         1.907646         1.593192        -1.624665
 H         2.731203         0.124946        -2.013912
 H         3.339219         1.476102         1.917526
