19
Iteration:  4937charge 0 multiplicity 1
 C        -0.065055        -0.166279        -0.546614
 C         1.471620         0.033372        -0.183119
 C         2.247246        -1.299915         0.330163
 C         3.583126        -0.744620         1.021665
 O         4.596105        -0.243043         0.133610
 C         3.623636         0.914576        -0.304037
 C         2.398170         0.527286        -1.280325
 C         2.968742         0.787403         1.129071
 O         1.617027         0.823934         0.977589
 H        -0.646510         0.155702         0.368538
 H        -0.319371         0.495220        -1.346222
 H        -0.352794        -1.193519        -0.826453
 H         1.696601        -1.792926         1.168073
 H         2.391824        -1.944158        -0.535257
 H         4.059335        -1.188695         1.954008
 H         4.323039         1.651179        -0.586187
 H         1.934332         1.512897        -1.797752
 H         2.745879        -0.252515        -1.986775
 H         3.349718         1.416257         1.974814
