19
Iteration:  1987
 C         0.177471        -0.483922        -0.692696
 C         1.516950        -0.024821        -0.076196
 C         2.246591        -1.289154         0.527445
 C         3.519435        -0.692623         0.950257
 O         4.285761        -0.285604        -0.237286
 C         3.645708         1.014940        -0.265276
 C         2.306627         0.819835        -1.042877
 C         3.068196         0.828989         1.155649
 O         1.681374         0.789037         1.064602
 H        -0.260351        -1.060814         0.062989
 H        -0.358884         0.349794        -1.165534
 H         0.392149        -0.993885        -1.645731
 H         1.626790        -1.714503         1.266005
 H         2.568049        -2.117489        -0.245319
 H         4.226882        -1.272870         1.552960
 H         4.245123         2.036129        -0.438446
 H         1.797853         1.809150        -1.263509
 H         2.470653         0.305404        -1.939198
 H         3.357946         1.301169         2.067396
