19
Iteration:  1964charge 0 multiplicity 1
 C         0.042067        -0.346930        -0.545089
 C         1.520005        -0.093652        -0.081610
 C         2.279202        -1.293998         0.336385
 C         3.561959        -0.661351         0.890560
 O         4.501546        -0.209837        -0.103761
 C         3.568900         0.990879        -0.297122
 C         2.415889         0.668075        -1.195118
 C         3.026813         0.772641         1.171742
 O         1.553604         0.799786         1.146594
 H        -0.421975        -0.879941         0.275101
 H        -0.446077         0.558389        -0.941860
 H         0.082037        -0.920180        -1.501382
 H         1.663414        -1.711283         1.150974
 H         2.384859        -2.067469        -0.445823
 H         4.086676        -1.200128         1.703699
 H         4.072524         2.057668        -0.543005
 H         1.781377         1.531926        -1.412832
 H         2.717983         0.176446        -2.105642
 H         3.536437         1.362778         1.946943
