19
Iteration:  2687charge 0 multiplicity 1
 C        -0.015084        -0.189969        -0.479156
 C         1.414793        -0.061502        -0.130001
 C         2.262658        -1.361626         0.325345
 C         3.506507        -0.709881         0.907627
 O         4.599063        -0.134502        -0.035727
 C         3.635204         0.985018        -0.271889
 C         2.394687         0.623041        -1.163821
 C         3.004735         0.696902         1.174757
 O         1.630670         0.793535         0.990212
 H        -0.684967        -0.401697         0.440354
 H        -0.423020         0.526398        -1.178463
 H        -0.034443        -1.101450        -1.112964
 H         1.775092        -1.840418         1.236805
 H         2.375304        -2.125674        -0.470394
 H         3.991936        -1.332727         1.631451
 H         4.031798         1.942898        -0.579193
 H         2.015938         1.555319        -1.444423
 H         2.696092         0.038053        -2.087985
 H         3.460619         1.190600         2.102953
