19
Iteration:   882
 C         0.022710        -0.247455        -0.417638
 C         1.504864        -0.114422        -0.173816
 C         2.338124        -1.429786         0.283920
 C         3.550103        -0.636434         0.947514
 O         4.509740        -0.131333        -0.051054
 C         3.586167         0.990900        -0.275910
 C         2.351292         0.665440        -1.142650
 C         2.967534         0.798445         1.176456
 O         1.643442         0.739588         0.966232
 H        -0.514996        -0.529664         0.474785
 H        -0.339380         0.786594        -0.639774
 H        -0.246042        -1.000217        -1.172825
 H         1.682560        -1.989057         0.960555
 H         2.605636        -2.078485        -0.506498
 H         4.156999        -1.344546         1.583789
 H         4.168855         1.837270        -0.467755
 H         1.786685         1.573674        -1.503576
 H         2.613098         0.086674        -2.031508
 H         3.108351         1.382328         2.047646
