19
Iteration:   184charge 0 multiplicity 1
 C        -0.022643        -0.173700        -0.329455
 C         1.483802        -0.151260        -0.273727
 C         2.347665        -1.365794         0.198351
 C         3.528992        -0.623081         0.973084
 O         4.519669        -0.099220         0.012824
 C         3.559237         0.967223        -0.272431
 C         2.492312         0.565122        -1.214586
 C         2.972881         0.735299         1.150468
 O         1.585719         0.731136         1.010047
 H        -0.340779        -0.616858         0.645453
 H        -0.345043         0.883610        -0.386958
 H        -0.628125        -0.667725        -1.098440
 H         1.678707        -1.887626         0.921585
 H         2.726814        -2.058778        -0.505984
 H         3.880342        -1.312327         1.678551
 H         4.242938         1.894809        -0.518469
 H         2.067671         1.503454        -1.515781
 H         2.739079        -0.020551        -2.098956
 H         3.264886         1.499415         1.894507
