19
Iteration:    12charge 0 multiplicity 1
 C         0.087051        -0.278017        -0.348642
 C         1.531066        -0.155541        -0.173159
 C         2.268818        -1.383255         0.287164
 C         3.528793        -0.753965         0.947876
 O         4.481209        -0.170222        -0.026769
 C         3.576746         1.019020        -0.257386
 C         2.440228         0.686160        -1.251148
 C         2.983841         0.798796         1.149978
 O         1.559616         0.797632         0.963553
 H        -0.405888        -0.681682         0.536553
 H        -0.182220         0.778601        -0.419545
 H        -0.177640        -0.795206        -1.272701
 H         1.685385        -1.893041         1.072743
 H         2.482502        -2.078861        -0.542808
 H         4.140534        -1.151113         1.743242
 H         4.109492         1.962023        -0.525929
 H         1.839728         1.577817        -1.477003
 H         2.911013         0.339190        -2.162320
 H         3.261408         1.476840         1.964355
