19
Iteration:  4847
 C         0.120693        -0.370265        -0.704137
 C         1.480442         0.011389        -0.058430
 C         2.175966        -1.321935         0.432728
 C         3.459754        -0.714695         0.973565
 O         4.418639        -0.319123        -0.068310
 C         3.701522         0.894963        -0.250708
 C         2.370175         0.723925        -1.145433
 C         3.118974         0.820031         1.186393
 O         1.637732         0.944759         1.035390
 H        -0.618621         0.388917        -0.553784
 H         0.289395        -0.482450        -1.833093
 H        -0.317646        -1.331070        -0.415638
 H         1.532846        -1.809441         1.210052
 H         2.426466        -2.057987        -0.356782
 H         3.899833        -1.315268         1.812946
 H         4.231018         1.734329        -0.681969
 H         1.760167         1.669191        -1.524483
 H         2.505097         0.058113        -2.103715
 H         3.578116         1.395049         1.937241
