19
Iteration:   165charge 0 multiplicity 1
 C        -0.118294        -0.253635        -0.388407
 C         1.400894        -0.038418        -0.147217
 C         2.359912        -1.317411         0.238462
 C         3.550980        -0.666082         0.926479
 O         4.607236        -0.186204         0.040723
 C         3.690865         0.982027        -0.258194
 C         2.382238         0.624488        -1.237122
 C         2.966822         0.802923         1.118600
 O         1.592579         0.720205         1.012455
 H        -0.641492        -0.728931         0.514853
 H        -0.563521         0.744624        -0.530973
 H        -0.140914        -0.837639        -1.319484
 H         1.815676        -2.143794         0.798305
 H         2.652737        -1.808448        -0.788722
 H         3.980732        -1.101309         1.793639
 H         4.348768         1.737388        -0.601994
 H         1.877404         1.456064        -1.738074
 H         2.682145        -0.117013        -1.870898
 H         3.311217         1.424861         2.028766
