19
Iteration:  4150
 C         0.029218        -0.335178        -0.739666
 C         1.441364        -0.040957        -0.084173
 C         2.190194        -1.280794         0.397178
 C         3.545202        -0.720377         0.955973
 O         4.454770        -0.283019        -0.113316
 C         3.662175         0.952950        -0.252555
 C         2.360922         0.807805        -1.127407
 C         3.091464         0.728693         1.198871
 O         1.652218         0.833505         1.126228
 H        -0.435481        -1.189776        -0.142080
 H        -0.632851         0.518007        -0.883186
 H         0.278060        -0.804302        -1.789260
 H         1.762663        -1.907091         1.196999
 H         2.456210        -1.932485        -0.438396
 H         3.933763        -1.323261         1.769654
 H         4.353424         1.697482        -0.541828
 H         1.882860         1.788550        -1.139723
 H         2.558363         0.422009        -2.168234
 H         3.601092         1.354170         1.921227
