19
Iteration:   262charge 0 multiplicity 1
 C         0.239321        -0.453698        -0.644129
 C         1.507789        -0.042852        -0.068027
 C         2.240879        -1.292236         0.433691
 C         3.529003        -0.670622         0.947124
 O         4.324543        -0.273907        -0.233946
 C         3.572742         0.937204        -0.248915
 C         2.320089         0.828594        -1.027114
 C         3.082456         0.778861         1.138046
 O         1.653625         0.848868         1.068977
 H        -0.452108        -1.094646         0.005117
 H        -0.342849         0.351271        -1.072337
 H         0.622246        -1.076778        -1.445645
 H         1.532051        -1.769638         1.101606
 H         2.308838        -1.931591        -0.431824
 H         4.014064        -1.210978         1.645858
 H         4.299835         1.737721        -0.567304
 H         1.915975         1.819407        -0.946361
 H         2.503199         0.522629        -1.983321
 H         3.355158         1.207817         2.128805
