19
Iteration:  1045
 C        -0.076622        -0.192556        -0.385270
 C         1.463114        -0.109083        -0.272761
 C         2.429395        -1.430354         0.238521
 C         3.578427        -0.611322         0.981079
 O         4.494508        -0.091790         0.047903
 C         3.603985         0.975167        -0.298914
 C         2.405005         0.631661        -1.235590
 C         2.999270         0.771696         1.104187
 O         1.589720         0.688550         1.084780
 H        -0.414728        -0.548484         0.551485
 H        -0.419115         0.849343        -0.440910
 H        -0.550437        -0.804741        -1.148816
 H         1.887577        -2.178187         0.978095
 H         2.647504        -1.891241        -0.715336
 H         4.023666        -1.375902         1.778211
 H         4.161089         1.885712        -0.632101
 H         1.913352         1.493239        -1.775188
 H         2.580515        -0.070607        -2.068600
 H         3.312380         1.446374         1.942584
