19
Iteration:  3331
 C         0.116679        -0.332993        -0.661500
 C         1.500376        -0.085363        -0.087633
 C         2.280651        -1.246828         0.432917
 C         3.557980        -0.620416         0.991667
 O         4.351191        -0.374436        -0.165223
 C         3.666517         0.965027        -0.269262
 C         2.422764         0.826806        -1.058285
 C         3.033976         0.819170         1.139155
 O         1.560343         0.733404         1.035382
 H        -0.459136        -0.824467         0.105443
 H        -0.355995         0.660042        -0.932681
 H         0.192035        -0.994344        -1.530081
 H         1.610791        -1.787435         1.169405
 H         2.438300        -2.115827        -0.247839
 H         4.195833        -1.218273         1.688997
 H         4.408070         1.755234        -0.507487
 H         1.894634         1.711190        -1.152568
 H         2.608233         0.385453        -2.125532
 H         3.248650         1.550516         1.929053
