19
Iteration:  3724
 C         0.101059        -0.423917        -0.730335
 C         1.508403        -0.091331        -0.183365
 C         2.169715        -1.224716         0.452599
 C         3.536870        -0.714368         0.911447
 O         4.329204        -0.308619        -0.146723
 C         3.640986         0.997934        -0.194831
 C         2.399244         0.816744        -1.061434
 C         3.100765         0.772012         1.210979
 O         1.694047         0.865105         1.087915
 H        -0.698884        -0.675390         0.118227
 H        -0.204814         0.355613        -1.465520
 H         0.111182        -1.350480        -1.340997
 H         1.531570        -1.660825         1.227142
 H         2.339009        -2.087729        -0.275857
 H         4.112154        -1.392020         1.619825
 H         4.387672         1.755435        -0.427189
 H         1.863361         1.738704        -1.196379
 H         2.621820         0.272733        -2.115379
 H         3.397608         1.331114         2.102444
