19
Iteration:   776charge 0 multiplicity 1
 C         0.016082        -0.219801        -0.383921
 C         1.503217        -0.120510        -0.162896
 C         2.376531        -1.433125         0.204887
 C         3.520062        -0.646441         0.965618
 O         4.573977        -0.104406        -0.015090
 C         3.557246         0.980640        -0.292084
 C         2.332728         0.580747        -1.190250
 C         2.951224         0.742130         1.160921
 O         1.602813         0.795518         1.039735
 H        -0.481121        -0.722701         0.401899
 H        -0.400411         0.792042        -0.526936
 H        -0.146689        -0.634948        -1.373837
 H         1.838952        -2.020587         0.897539
 H         2.791074        -1.885915        -0.767345
 H         3.880468        -1.011982         1.835316
 H         4.335275         1.773469        -0.583769
 H         1.844873         1.430884        -1.594036
 H         2.435580        -0.017375        -2.035523
 H         3.308137         1.411054         1.893102
