19
Iteration:  3489
 C         0.090938        -0.262672        -0.518549
 C         1.535138        -0.094730        -0.129533
 C         2.261591        -1.379137         0.390690
 C         3.506796        -0.709999         0.913295
 O         4.499113        -0.266415        -0.093230
 C         3.612087         0.967352        -0.211181
 C         2.455835         0.694458        -1.178413
 C         2.979453         0.789240         1.139614
 O         1.538806         0.850955         1.000246
 H        -0.383447        -0.996074         0.177216
 H        -0.374912         0.729627        -0.481972
 H         0.152293        -0.615238        -1.607659
 H         1.782186        -1.708026         1.367598
 H         2.271687        -2.081271        -0.475247
 H         3.973151        -1.258302         1.721104
 H         4.191141         1.895733        -0.371901
 H         1.915358         1.675150        -1.397877
 H         2.626570         0.159223        -2.051294
 H         3.254995         1.564458         1.898546
