19
Iteration:   456charge 0 multiplicity 1
 C        -0.058909        -0.149716        -0.388501
 C         1.439302        -0.150335        -0.221125
 C         2.352217        -1.411298         0.296205
 C         3.601132        -0.633475         0.932196
 O         4.528148        -0.109548        -0.104338
 C         3.613184         0.945174        -0.198118
 C         2.448397         0.612545        -1.174014
 C         2.898181         0.757467         1.236806
 O         1.612807         0.722452         0.946824
 H        -0.476306        -0.507993         0.580931
 H        -0.478983         0.823204        -0.473479
 H        -0.486788        -0.630444        -1.243778
 H         1.875898        -2.154274         1.054325
 H         2.634347        -1.957097        -0.518808
 H         4.152452        -1.216239         1.735068
 H         4.218120         1.908704        -0.463472
 H         1.912634         1.532881        -1.622355
 H         2.906261         0.072634        -2.097572
 H         3.283418         1.450582         1.928165
