19
Iteration:  2301charge 0 multiplicity 1
 C         0.145827        -0.457827        -0.722229
 C         1.438088        -0.023475        -0.129072
 C         2.275943        -1.312875         0.559809
 C         3.564132        -0.622965         0.980420
 O         4.289837        -0.309893        -0.299732
 C         3.678542         0.965568        -0.201136
 C         2.328477         0.765786        -1.029098
 C         3.107694         0.836776         1.145472
 O         1.651988         0.821353         1.072422
 H        -0.649809        -0.954466        -0.185620
 H        -0.336081         0.534056        -1.002168
 H         0.418074        -1.142694        -1.612040
 H         1.635174        -1.577315         1.485659
 H         2.552987        -2.189502        -0.074928
 H         4.016946        -1.302353         1.692844
 H         4.203465         1.841163        -0.689869
 H         1.864535         1.886917        -1.120448
 H         2.637123         0.361291        -1.984155
 H         3.437694         1.322788         2.039176
