19
Iteration:  4714
 C         0.079366        -0.260046        -0.648611
 C         1.535115        -0.011897        -0.145180
 C         2.283540        -1.386884         0.511625
 C         3.499522        -0.695450         0.980227
 O         4.340889        -0.366316        -0.152699
 C         3.660900         0.973618        -0.196510
 C         2.503277         0.897948        -1.157449
 C         3.065743         0.723595         1.141066
 O         1.526091         0.791285         1.001554
 H         0.239699        -0.822828        -1.546686
 H        -0.484810        -0.873878         0.041445
 H        -0.254875         0.781956        -0.681099
 H         1.740455        -1.782191         1.364770
 H         2.424336        -2.295174        -0.089169
 H         4.063538        -1.223632         1.713985
 H         4.304386         1.750296        -0.623921
 H         1.875682         1.862445        -1.346577
 H         2.750937         0.555535        -2.243066
 H         3.251112         1.129059         2.167741
