19
Iteration:  2486charge 0 multiplicity 1
 C         0.052429        -0.304878        -0.507374
 C         1.534505        -0.094310        -0.138178
 C         2.253077        -1.311061         0.339923
 C         3.503501        -0.706352         0.970553
 O         4.457757        -0.204352        -0.117815
 C         3.636271         0.954087        -0.277253
 C         2.426825         0.609262        -1.144975
 C         3.029442         0.827829         1.153777
 O         1.584198         0.863462         1.036887
 H        -0.438436        -0.700767         0.362555
 H        -0.493073         0.701372        -0.498095
 H         0.048247        -1.027852        -1.394454
 H         1.644412        -1.935580         1.040225
 H         2.434145        -1.973463        -0.550881
 H         3.968457        -1.423773         1.683846
 H         4.217930         1.907021        -0.591069
 H         1.982488         1.584543        -1.434704
 H         2.654568         0.071569        -2.005918
 H         3.395173         1.335242         2.088234
