19
Iteration:  4524
 C        -0.059274        -0.116238        -0.349334
 C         1.567637        -0.035380        -0.230849
 C         2.296116        -1.402805         0.184950
 C         3.456779        -0.745218         0.963538
 O         4.487595        -0.186698         0.003981
 C         3.653415         0.954336        -0.166384
 C         2.517949         0.718167        -1.242799
 C         2.937268         0.718463         1.151335
 O         1.599586         0.742676         0.994049
 H        -0.587939        -0.040167         0.649229
 H        -0.433426         0.376578        -1.316330
 H        -0.266814        -1.152177        -0.751692
 H         1.769157        -2.070940         0.888888
 H         2.538026        -2.017366        -0.711335
 H         4.107590        -1.239635         1.780011
 H         4.284287         1.847912        -0.296540
 H         1.997584         1.756704        -1.666516
 H         2.759786         0.038616        -2.079729
 H         3.316136         1.284658         1.975431
