19
Iteration:  3961charge 0 multiplicity 1
 C        -0.005925        -0.109575        -0.420998
 C         1.442404        -0.098424        -0.069877
 C         2.359599        -1.325461         0.121144
 C         3.491255        -0.585247         0.982152
 O         4.562439        -0.223593         0.049335
 C         3.675889         0.847882        -0.267399
 C         2.472502         0.588369        -1.217431
 C         2.934233         0.775462         1.117186
 O         1.522475         0.753409         1.019886
 H        -0.573761        -0.878370         0.255382
 H        -0.301394         1.055812        -0.330988
 H        -0.212265        -0.522779        -1.422496
 H         1.859246        -2.082924         0.753721
 H         2.674829        -1.682281        -0.871571
 H         3.751194        -1.207806         1.860825
 H         4.271320         1.804170        -0.348916
 H         2.005049         1.490635        -1.642349
 H         2.652274        -0.135454        -2.049897
 H         3.393101         1.338414         1.920277
