19
Iteration:  1015
 C         0.070356        -0.330185        -0.508353
 C         1.461191        -0.051081        -0.086256
 C         2.342149        -1.350914         0.335933
 C         3.553673        -0.651975         0.890726
 O         4.447108        -0.143059        -0.105643
 C         3.612745         0.986000        -0.260713
 C         2.355904         0.663419        -1.066964
 C         3.014556         0.766654         1.155430
 O         1.614392         0.746252         1.002949
 H        -0.574063        -0.618763         0.304099
 H        -0.410258         0.590961        -0.919618
 H         0.146172        -1.041371        -1.333216
 H         1.896004        -1.893160         1.145524
 H         2.429936        -1.841689        -0.697162
 H         4.054612        -1.291848         1.685780
 H         4.189707         1.801639        -0.566844
 H         1.883778         1.607426        -1.466816
 H         2.494888         0.098965        -1.985310
 H         3.296473         1.330447         2.124162
