19
Iteration:  4273
 C         0.065147        -0.188930        -0.443505
 C         1.533469        -0.069898        -0.150064
 C         2.253972        -1.313009         0.278550
 C         3.533993        -0.694722         0.958035
 O         4.424685        -0.215623        -0.140560
 C         3.666103         0.921191        -0.205966
 C         2.502981         0.772432        -1.134439
 C         2.963103         0.686612         1.217118
 O         1.556574         0.707816         0.964136
 H        -0.454734         0.027957         0.484973
 H        -0.137539         0.634092        -1.271669
 H        -0.145917        -1.165824        -0.986108
 H         1.477702        -1.743523         0.995460
 H         2.329690        -2.106944        -0.505708
 H         4.081278        -1.250881         1.769743
 H         4.162729         1.922946        -0.416660
 H         1.888349         1.603062        -1.420306
 H         2.894833         0.325422        -1.995933
 H         3.295309         1.283992         2.093050
