19
Iteration:  1314charge 0 multiplicity 1
 C        -0.046127        -0.223548        -0.418511
 C         1.484831        -0.131788        -0.150085
 C         2.365192        -1.392720         0.295299
 C         3.599122        -0.607191         1.006129
 O         4.492313        -0.179694        -0.093014
 C         3.584671         1.000110        -0.216973
 C         2.370308         0.685901        -1.164340
 C         2.999746         0.770381         1.108887
 O         1.585636         0.710472         0.955677
 H        -0.473680        -0.624923         0.511694
 H        -0.357309         0.787540        -0.699169
 H        -0.130553        -1.003813        -1.208092
 H         1.798874        -2.042533         1.018403
 H         2.902785        -1.939148        -0.475950
 H         4.069946        -1.139244         1.784386
 H         4.155738         1.958053        -0.415480
 H         1.935930         1.618181        -1.650994
 H         2.667367         0.094839        -2.066885
 H         3.206581         1.358203         2.035401
