19
Iteration:  1291charge 0 multiplicity 1
 C         0.089534        -0.390190        -0.614385
 C         1.566867        -0.087751        -0.097216
 C         2.251888        -1.335479         0.353662
 C         3.545064        -0.613533         0.931982
 O         4.390759        -0.228882        -0.161169
 C         3.618094         1.004657        -0.312434
 C         2.382600         0.727861        -1.109099
 C         3.011969         0.816922         1.175322
 O         1.605188         0.776230         1.173201
 H        -0.427495        -0.894528         0.234382
 H        -0.322194         0.526432        -0.986214
 H         0.244551        -1.166098        -1.358954
 H         1.654346        -1.663836         1.186095
 H         2.569614        -2.134573        -0.410450
 H         4.156640        -1.271741         1.533212
 H         4.300252         1.762526        -0.682243
 H         1.679597         1.589016        -1.302782
 H         2.477996         0.329154        -2.163289
 H         3.453858         1.473503         1.992329
