19
Iteration:   905charge 0 multiplicity 1
 C        -0.036861        -0.181515        -0.319513
 C         1.468509        -0.159046        -0.222594
 C         2.352926        -1.382298         0.250435
 C         3.561905        -0.631319         0.925352
 O         4.531685        -0.073955        -0.013493
 C         3.597572         1.036898        -0.267273
 C         2.491904         0.548383        -1.240241
 C         2.944081         0.732648         1.123131
 O         1.539917         0.724360         1.011126
 H        -0.498097        -0.549085         0.580834
 H        -0.288077         0.928765        -0.332914
 H        -0.461743        -0.834184        -1.115544
 H         1.870036        -1.932336         1.031793
 H         2.547337        -2.069584        -0.593421
 H         4.099346        -1.303376         1.629583
 H         4.062999         1.969782        -0.166452
 H         2.076008         1.444268        -1.761504
 H         2.836755        -0.077648        -2.052790
 H         3.366231         1.228856         1.986909
