19
Iteration:   387
 C         0.170487        -0.454768        -0.624351
 C         1.559243        -0.052249        -0.135588
 C         2.226124        -1.356226         0.500252
 C         3.536658        -0.718809         0.931427
 O         4.294874        -0.278624        -0.303175
 C         3.659850         1.011299        -0.188873
 C         2.340452         0.914972        -1.040811
 C         3.042954         0.756996         1.168468
 O         1.643260         0.837603         1.046091
 H        -0.264363        -1.041767         0.200816
 H        -0.568316         0.335127        -0.998136
 H         0.306113        -1.081718        -1.557592
 H         1.623270        -1.787814         1.384735
 H         2.517028        -2.221649        -0.242952
 H         4.347594        -1.121863         1.672478
 H         4.267251         1.841856        -0.403691
 H         1.907119         1.878153        -1.227096
 H         2.682942         0.559074        -2.039463
 H         3.055013         1.259284         2.156184
