19
Iteration:    61charge 0 multiplicity 1
 C         0.026368        -0.311365        -0.483536
 C         1.411250        -0.120846        -0.103979
 C         2.284139        -1.320864         0.261265
 C         3.530597        -0.646897         0.944310
 O         4.515977        -0.193789        -0.020390
 C         3.633216         0.930074        -0.347500
 C         2.431469         0.666662        -1.199200
 C         2.981738         0.799857         1.138270
 O         1.616519         0.829689         1.129506
 H        -0.506057        -0.816386         0.325735
 H        -0.450736         0.663321        -0.746661
 H        -0.042940        -0.971746        -1.373565
 H         1.802287        -2.104359         0.880599
 H         2.628929        -1.862478        -0.620894
 H         4.109076        -1.298809         1.673393
 H         4.233788         1.998988        -0.410579
 H         1.927230         1.569992        -1.568823
 H         2.503148        -0.039040        -2.077240
 H         3.407736         1.504562         1.827550
