19
Iteration:   870charge 0 multiplicity 1
 C         0.039128        -0.311566        -0.490324
 C         1.485155        -0.129431        -0.084538
 C         2.313982        -1.348009         0.305344
 C         3.589238        -0.668259         0.952227
 O         4.444348        -0.209468        -0.118510
 C         3.679005         1.009026        -0.300207
 C         2.394832         0.727798        -1.183688
 C         3.001685         0.808816         1.136244
 O         1.520239         0.745525         1.094534
 H        -0.522542        -0.671306         0.358613
 H        -0.407532         0.570130        -0.962639
 H         0.028537        -1.016437        -1.316723
 H         1.893222        -1.978659         1.123348
 H         2.630814        -1.917919        -0.491036
 H         4.099218        -1.140843         1.889095
 H         4.153182         1.902757        -0.459675
 H         1.961087         1.769662        -1.327793
 H         2.533534         0.185062        -2.144556
 H         3.474417         1.433092         1.858917
