19
Iteration:  3891charge 0 multiplicity 1
 C         0.186619        -0.353804        -0.764460
 C         1.472940         0.046972        -0.111034
 C         2.241224        -1.283692         0.446109
 C         3.534849        -0.738328         0.941067
 O         4.274086        -0.289776        -0.165466
 C         3.632602         0.902594        -0.227164
 C         2.337535         0.798405        -1.104808
 C         3.090781         0.771800         1.225126
 O         1.690705         0.818444         1.141169
 H        -0.697545        -0.674035        -0.247440
 H        -0.148506         0.318224        -1.628265
 H         0.293338        -1.336104        -1.351011
 H         1.703699        -1.634726         1.314042
 H         2.370175        -2.051834        -0.315544
 H         3.963440        -1.077082         1.882369
 H         4.342344         1.683472        -0.542804
 H         1.916137         1.742486        -1.477800
 H         2.671194         0.195307        -1.960961
 H         3.503569         1.424931         2.028579
