19
Iteration:  1162charge 0 multiplicity 1
 C         0.067864        -0.298796        -0.478742
 C         1.534575        -0.105054        -0.221999
 C         2.340477        -1.338465         0.315877
 C         3.569334        -0.679717         0.952121
 O         4.446276        -0.169321        -0.119464
 C         3.581312         1.000524        -0.265283
 C         2.399740         0.685613        -1.145114
 C         2.966088         0.773565         1.184810
 O         1.552087         0.748916         1.061966
 H        -0.413357        -0.662563         0.483023
 H        -0.381405         0.675092        -0.788291
 H        -0.113803        -1.179138        -1.172607
 H         1.778294        -1.630862         1.269173
 H         2.611498        -2.150135        -0.343409
 H         4.156977        -1.224020         1.654588
 H         4.072490         2.072796        -0.486678
 H         1.974827         1.594199        -1.564789
 H         2.704623         0.131490        -2.041643
 H         3.437600         1.421792         1.971480
