19
Iteration:  1500charge 0 multiplicity 1
 C        -0.024168        -0.222307        -0.334413
 C         1.557554        -0.161360        -0.228490
 C         2.398785        -1.406912         0.249712
 C         3.534957        -0.643325         0.898726
 O         4.525310        -0.114607        -0.025337
 C         3.568270         0.979570        -0.263264
 C         2.442444         0.576382        -1.206135
 C         2.965415         0.799217         1.171827
 O         1.519851         0.763242         1.022068
 H        -0.460079        -0.654082         0.540324
 H        -0.412155         0.799238        -0.525387
 H        -0.420674        -0.776632        -1.204037
 H         1.725494        -2.068843         0.910933
 H         2.723715        -1.998705        -0.562535
 H         4.074242        -1.028415         1.764033
 H         4.202266         1.931014        -0.477317
 H         1.912280         1.592785        -1.513180
 H         2.746247         0.087052        -2.161322
 H         3.185804         1.456427         1.988532
