19
Iteration:   938
 C         0.042525        -0.347442        -0.536784
 C         1.482059        -0.120598        -0.123078
 C         2.326015        -1.304541         0.305937
 C         3.538282        -0.595867         0.948450
 O         4.453129        -0.186036        -0.088211
 C         3.615244         0.986332        -0.287162
 C         2.362335         0.645404        -1.123046
 C         3.045891         0.778142         1.123834
 O         1.613360         0.783281         1.097317
 H        -0.441765        -0.922801         0.231576
 H        -0.460244         0.654008        -0.698226
 H        -0.077937        -0.707049        -1.574430
 H         1.744270        -1.847843         0.995219
 H         2.592879        -1.992142        -0.550083
 H         4.072824        -1.286522         1.598621
 H         4.126867         1.906386        -0.437080
 H         1.778684         1.578814        -1.274837
 H         2.556943         0.029396        -1.986034
 H         3.414352         1.311423         2.018327
