19
Iteration:  2249
 C        -0.048880        -0.280151        -0.479625
 C         1.418603        -0.089091        -0.125637
 C         2.261528        -1.358104         0.314429
 C         3.600608        -0.615008         0.989088
 O         4.548246        -0.188036        -0.076367
 C         3.626194         0.992625        -0.252504
 C         2.437435         0.636547        -1.161825
 C         3.001383         0.745170         1.124558
 O         1.629029         0.814163         0.978719
 H        -0.494437        -0.699209         0.441540
 H        -0.749659         0.560514        -0.651566
 H        -0.211207        -1.025211        -1.281631
 H         1.788024        -2.019498         1.040634
 H         2.546141        -2.034992        -0.594366
 H         3.979778        -1.217053         1.792239
 H         4.079208         2.019497        -0.415815
 H         1.902350         1.534332        -1.615580
 H         2.742363         0.000622        -1.940206
 H         3.341843         1.258726         2.046768
