19
Iteration:  2809charge 0 multiplicity 1
 C        -0.022162        -0.081833        -0.334916
 C         1.489121        -0.174593        -0.225533
 C         2.419979        -1.465628         0.219361
 C         3.494885        -0.614105         1.002796
 O         4.511920        -0.199595        -0.000411
 C         3.723191         0.932872        -0.230203
 C         2.423324         0.641772        -1.188808
 C         2.918697         0.841793         1.089424
 O         1.560720         0.745709         0.928136
 H        -0.401710        -0.519322         0.582533
 H        -0.396049         0.960299        -0.354897
 H        -0.613169        -0.549329        -1.222486
 H         1.881370        -2.225835         0.888842
 H         2.735072        -2.043253        -0.624802
 H         3.802994        -1.117772         1.945411
 H         4.324019         1.789587        -0.376187
 H         1.866939         1.458565        -1.485332
 H         2.609888        -0.016600        -2.057970
 H         2.986622         1.336070         2.034109
