19
Iteration:  1509
 C         0.042674        -0.266202        -0.405190
 C         1.488019        -0.149650        -0.163711
 C         2.338873        -1.382941         0.274756
 C         3.528887        -0.660595         0.892737
 O         4.461959        -0.095640        -0.031205
 C         3.587078         1.003670        -0.252222
 C         2.419766         0.636819        -1.137161
 C         2.966543         0.801037         1.161693
 O         1.604784         0.748631         0.976669
 H        -0.467483        -0.688113         0.457991
 H        -0.454811         0.703578        -0.499163
 H        -0.127296        -0.878514        -1.303937
 H         1.873129        -1.969126         1.101498
 H         2.759482        -2.063323        -0.535364
 H         4.008630        -1.315139         1.719536
 H         4.112000         1.844561        -0.710769
 H         1.962900         1.531448        -1.550548
 H         2.666436         0.012268        -2.000963
 H         3.452598         1.367704         1.907246
