19
Iteration:   303charge 0 multiplicity 1
 C         0.047200        -0.172975        -0.421924
 C         1.473309        -0.100505        -0.149414
 C         2.266186        -1.377565         0.223212
 C         3.527933        -0.670785         0.960584
 O         4.515781        -0.110387        -0.065988
 C         3.609363         0.998553        -0.252968
 C         2.441978         0.631754        -1.208981
 C         2.998859         0.765035         1.175289
 O         1.571179         0.652093         1.006698
 H        -0.411054        -0.634370         0.469052
 H        -0.416623         0.800248        -0.477938
 H        -0.296808        -0.827871        -1.212666
 H         1.799933        -1.861226         1.100026
 H         2.654288        -2.127563        -0.365698
 H         4.123021        -1.146355         1.823674
 H         4.056606         2.063097        -0.527389
 H         1.859049         1.570076        -1.515268
 H         2.850761         0.009877        -2.145419
 H         3.329070         1.377076         2.050078
