19
Iteration:   674charge 0 multiplicity 1
 C         0.144195        -0.389116        -0.698711
 C         1.478188        -0.077829        -0.047168
 C         2.266435        -1.256011         0.407767
 C         3.586616        -0.658543         0.986154
 O         4.376812        -0.275559        -0.204618
 C         3.574135         0.979311        -0.334097
 C         2.321090         0.761246        -1.115819
 C         3.065317         0.832791         1.155118
 O         1.651047         0.751344         1.194806
 H        -0.583401        -1.039914        -0.146425
 H        -0.347755         0.522325        -1.109331
 H         0.428561        -1.083277        -1.527991
 H         1.662781        -1.523468         1.352293
 H         2.228248        -2.083873        -0.198043
 H         4.282188        -1.157658         1.707674
 H         4.243043         1.817276        -0.619929
 H         1.830103         1.683682        -1.338023
 H         2.488152         0.203983        -2.018611
 H         3.406651         1.520162         1.984419
