19
Iteration:  3395charge 0 multiplicity 1
 C        -0.101820        -0.218621        -0.450795
 C         1.453015        -0.101411        -0.184193
 C         2.252787        -1.395394         0.239018
 C         3.522228        -0.676384         0.943102
 O         4.542349        -0.152153        -0.041395
 C         3.732282         1.014782        -0.256856
 C         2.559350         0.607236        -1.177686
 C         2.961255         0.768238         1.160922
 O         1.532188         0.768596         1.050784
 H        -0.472367        -0.242183         0.522933
 H        -0.587530         0.701897        -0.859038
 H        -0.590518        -0.961736        -1.068012
 H         1.717836        -1.854365         1.070863
 H         2.658813        -1.975294        -0.552245
 H         3.942400        -1.247059         1.781292
 H         4.292334         1.971635        -0.445713
 H         2.250305         1.398746        -1.805156
 H         3.009851        -0.220250        -1.919061
 H         3.354265         1.359755         2.005460
