19
Iteration:  4904
 C         0.058026        -0.187738        -0.568066
 C         1.543460        -0.056114        -0.154010
 C         2.238584        -1.357209         0.375320
 C         3.485172        -0.701757         1.020047
 O         4.411789        -0.271921        -0.031033
 C         3.662008         0.912213        -0.203696
 C         2.519271         0.557330        -1.208808
 C         2.956929         0.870347         1.103838
 O         1.625808         0.832856         0.983269
 H        -0.615501         0.404898         0.112433
 H        -0.253838         0.295314        -1.484417
 H        -0.392423        -1.166537        -0.457315
 H         1.675756        -2.005429         1.115166
 H         2.440833        -2.023857        -0.467778
 H         3.993127        -1.075246         1.975583
 H         4.173776         1.805938        -0.511186
 H         1.965906         1.612392        -1.489515
 H         2.791696         0.019583        -2.158634
 H         3.377269         1.484924         1.918462
