19
Iteration:  2429charge 0 multiplicity 1
 C         0.186500        -0.367226        -0.676713
 C         1.499973        -0.104514        -0.011899
 C         2.233126        -1.336051         0.472490
 C         3.547809        -0.639611         0.912999
 O         4.298425        -0.322954        -0.218591
 C         3.634261         1.009681        -0.294475
 C         2.338824         0.745023        -1.053210
 C         3.100940         0.829776         1.159778
 O         1.634997         0.865739         1.076274
 H        -0.368859        -1.049442        -0.049777
 H        -0.308340         0.497690        -1.121678
 H         0.541517        -0.992971        -1.550938
 H         1.497933        -1.643650         1.265322
 H         2.290598        -2.106641        -0.223885
 H         4.072541        -1.194928         1.757754
 H         4.278741         1.856856        -0.539097
 H         1.841822         1.627328        -1.313637
 H         2.556173         0.180187        -1.982142
 H         3.478820         1.273964         2.091760
