19
Iteration:  4658
 C        -0.130656        -0.172561        -0.502904
 C         1.408335        -0.025653        -0.138106
 C         2.270109        -1.388792         0.169949
 C         3.527978        -0.674402         0.973059
 O         4.584015        -0.221481         0.072516
 C         3.711863         0.943007        -0.231719
 C         2.508034         0.647879        -1.166194
 C         3.013395         0.736365         1.074429
 O         1.592494         0.787309         1.056823
 H        -0.505871        -1.210611        -0.661238
 H        -0.614684         0.327532         0.262768
 H        -0.444509         0.324412        -1.433445
 H         1.857525        -2.117919         0.832776
 H         2.540940        -1.750465        -0.809510
 H         3.932977        -1.307224         1.665302
 H         4.203714         1.890847        -0.444577
 H         2.073901         1.649101        -1.573754
 H         2.494782        -0.160892        -1.914205
 H         3.252560         1.286693         2.035179
