19
Iteration:  2652charge 0 multiplicity 1
 C        -0.028951        -0.087544        -0.374714
 C         1.451454        -0.125003        -0.194670
 C         2.322465        -1.358120         0.225063
 C         3.482247        -0.629683         0.930818
 O         4.578317        -0.144176        -0.032512
 C         3.613546         0.977745        -0.251597
 C         2.478362         0.487871        -1.181586
 C         2.963783         0.780964         1.153184
 O         1.578476         0.718141         1.027372
 H        -0.569786        -0.471656         0.574303
 H        -0.314716         1.005983        -0.462041
 H        -0.239515        -0.750486        -1.214321
 H         1.879882        -2.008420         0.975408
 H         2.620537        -1.990303        -0.678232
 H         3.804078        -1.288775         1.719331
 H         4.172900         1.842051        -0.724110
 H         2.104361         1.403166        -1.646685
 H         2.817527        -0.133427        -1.963183
 H         3.140680         1.427895         1.988406
