19
Iteration:  2589
 C         0.136289        -0.498225        -0.722722
 C         1.428925         0.011690         0.002370
 C         2.121548        -1.312627         0.495907
 C         3.485928        -0.747706         0.834514
 O         4.379869        -0.315106        -0.265311
 C         3.766432         1.015157        -0.263215
 C         2.424642         0.793484        -1.059255
 C         3.116740         0.865394         1.138845
 O         1.586428         0.894787         1.190430
 H        -0.382240        -1.366723        -0.196425
 H        -0.527772         0.214225        -1.096707
 H         0.479050        -1.003079        -1.617846
 H         1.695987        -1.607444         1.484413
 H         2.335509        -2.196151        -0.145105
 H         3.928037        -1.280073         1.660514
 H         4.515606         1.718582        -0.537114
 H         1.899293         1.722353        -1.202025
 H         2.663047         0.204925        -2.026164
 H         3.478634         1.574223         1.923071
