19
Iteration:  4350charge 0 multiplicity 1
 C         0.059498        -0.178899        -0.579249
 C         1.504738        -0.084011        -0.179467
 C         2.239284        -1.393201         0.382641
 C         3.479171        -0.717054         0.943122
 O         4.395991        -0.219070        -0.097122
 C         3.660600         1.000383        -0.219676
 C         2.432202         0.705177        -1.163449
 C         3.095920         0.737779         1.201498
 O         1.631485         0.758939         1.018632
 H        -0.551806        -0.833655         0.071387
 H        -0.443156         0.843661        -0.451578
 H         0.096692        -0.577261        -1.611904
 H         1.558093        -1.704604         1.186238
 H         2.420383        -2.173116        -0.384821
 H         3.927579        -1.359530         1.745067
 H         4.239065         1.950548        -0.378778
 H         1.901056         1.634931        -1.368810
 H         2.648291         0.211981        -2.074107
 H         3.426173         1.298965         2.060037
