19
Iteration:  1278charge 0 multiplicity 1
 C         0.235047        -0.452512        -0.664931
 C         1.454353        -0.040618        -0.075975
 C         2.217258        -1.296598         0.454914
 C         3.585429        -0.673074         0.903904
 O         4.392561        -0.260379        -0.252418
 C         3.597923         1.002885        -0.259593
 C         2.284337         0.776302        -1.062437
 C         3.080506         0.804277         1.169661
 O         1.610651         0.827192         1.133724
 H        -0.479043        -0.992582        -0.043617
 H        -0.412411         0.217941        -1.157703
 H         0.569887        -1.047035        -1.475523
 H         1.684032        -1.749569         1.215287
 H         2.375168        -2.183721        -0.304823
 H         4.106076        -1.192588         1.788093
 H         4.101515         1.870412        -0.418143
 H         1.911289         1.798466        -1.201810
 H         2.513448         0.166353        -1.971008
 H         3.434893         1.374918         2.045421
