19
Iteration:  1516
 C         0.055648        -0.319124        -0.490841
 C         1.461550        -0.106718        -0.093635
 C         2.291903        -1.344459         0.302033
 C         3.546500        -0.665371         0.962669
 O         4.444404        -0.120443        -0.063124
 C         3.627061         1.040186        -0.273446
 C         2.359435         0.666192        -1.132217
 C         2.992874         0.782963         1.112346
 O         1.649396         0.744907         0.991319
 H        -0.385606        -0.912190         0.370731
 H        -0.332949         0.696338        -0.625517
 H        -0.001191        -0.991541        -1.353975
 H         1.882827        -1.888683         1.111160
 H         2.525763        -2.093296        -0.553291
 H         4.045872        -1.409974         1.605698
 H         4.086407         1.939627        -0.616228
 H         1.834332         1.537533        -1.469265
 H         2.784045        -0.039737        -1.849219
 H         3.355925         1.307690         2.048816
