19
Iteration:  3044
 C         0.005531        -0.355383        -0.723974
 C         1.487007         0.010760        -0.122367
 C         2.221934        -1.319283         0.478694
 C         3.591240        -0.731264         0.961595
 O         4.422826        -0.273831        -0.143190
 C         3.635847         0.971132        -0.236374
 C         2.401723         0.765364        -1.098776
 C         3.085974         0.698194         1.188884
 O         1.621208         0.890149         1.027077
 H        -0.520988        -0.639692         0.226580
 H        -0.478649         0.351226        -1.313727
 H         0.303596        -1.252395        -1.244877
 H         1.614572        -1.674742         1.342645
 H         2.278829        -2.214050        -0.144399
 H         4.258592        -1.267175         1.625084
 H         4.253447         1.882494        -0.574078
 H         1.948579         1.720771        -1.329210
 H         2.566267         0.184035        -1.981051
 H         3.237640         1.353194         2.041070
