19
Iteration:  1277charge 0 multiplicity 1
 C         0.231568        -0.466262        -0.674223
 C         1.454458        -0.031866        -0.068546
 C         2.227040        -1.290929         0.465104
 C         3.574273        -0.683000         0.905038
 O         4.393274        -0.259092        -0.257809
 C         3.592773         1.002887        -0.258142
 C         2.285675         0.782664        -1.059091
 C         3.082001         0.799343         1.173472
 O         1.614504         0.827309         1.125745
 H        -0.488533        -0.975431        -0.043333
 H        -0.426267         0.233226        -1.154207
 H         0.575536        -1.032365        -1.502111
 H         1.691132        -1.766248         1.233599
 H         2.344467        -2.147044        -0.305126
 H         4.139236        -1.184240         1.806284
 H         4.117309         1.872144        -0.433147
 H         1.898285         1.788956        -1.203566
 H         2.524052         0.175985        -1.944444
 H         3.441339         1.368582         2.019142
