19
Iteration:  3957
 C        -0.026030        -0.111043        -0.404171
 C         1.460411        -0.136607        -0.124082
 C         2.346592        -1.293874         0.141060
 C         3.470866        -0.632126         0.988040
 O         4.598858        -0.222519         0.052497
 C         3.623274         0.842545        -0.248009
 C         2.459944         0.630185        -1.262813
 C         2.949270         0.766074         1.128417
 O         1.532638         0.759483         1.022279
 H        -0.457559        -0.724923         0.308298
 H        -0.187408         0.951440        -0.370754
 H        -0.237821        -0.598767        -1.388166
 H         1.836625        -2.001507         0.748080
 H         2.751658        -1.646490        -0.787494
 H         3.814324        -1.125554         1.910065
 H         4.294847         1.706179        -0.468492
 H         1.986916         1.573529        -1.623979
 H         2.697786        -0.122771        -1.937758
 H         3.301193         1.386689         1.959825
