19
Iteration:  3524charge 0 multiplicity 1
 C        -0.031960        -0.116375        -0.429561
 C         1.505853        -0.126438        -0.205007
 C         2.383317        -1.367065         0.181002
 C         3.513130        -0.650995         1.020447
 O         4.525004        -0.224514         0.075502
 C         3.613053         0.938550        -0.282758
 C         2.430244         0.611089        -1.324970
 C         2.953054         0.807889         1.178877
 O         1.581117         0.752622         1.095873
 H        -0.608658        -0.367898         0.441010
 H        -0.513648         0.861465        -0.802654
 H        -0.475775        -0.916648        -1.143725
 H         1.866847        -2.146878         0.815042
 H         2.743844        -1.921034        -0.676662
 H         3.841152        -1.278802         1.808207
 H         4.164979         1.916924        -0.511834
 H         1.982343         1.533144        -1.747813
 H         2.754770        -0.099118        -2.176383
 H         3.466005         1.581898         1.769292
