19
Iteration:  4413
 C        -0.006593        -0.308694        -0.612136
 C         1.456307        -0.021078        -0.131648
 C         2.205477        -1.300989         0.184322
 C         3.524953        -0.712089         1.007340
 O         4.494910        -0.283240        -0.034597
 C         3.658412         0.933377        -0.228034
 C         2.390868         0.679519        -1.102598
 C         3.083947         0.749598         1.205595
 O         1.637156         0.875630         1.070357
 H        -0.522514        -1.029845        -0.023055
 H        -0.656255         0.613118        -0.452406
 H         0.055300        -0.452171        -1.747457
 H         1.606802        -1.890761         0.903331
 H         2.483475        -1.971744        -0.625813
 H         4.114235        -1.255032         1.802611
 H         4.118073         1.851894        -0.564189
 H         2.020928         1.754054        -1.468851
 H         2.604878         0.038140        -2.032552
 H         3.620491         1.402712         1.933283
