19
Iteration:  4254charge 0 multiplicity 1
 C        -0.102174        -0.101004        -0.538367
 C         1.471437        -0.085149        -0.196161
 C         2.321678        -1.392903         0.205461
 C         3.509587        -0.727008         0.891507
 O         4.492555        -0.223988        -0.008248
 C         3.637293         1.042036        -0.165275
 C         2.455386         0.620385        -1.192769
 C         3.021284         0.780940         1.191150
 O         1.615007         0.746771         1.089904
 H        -0.478218        -0.136194         0.512811
 H        -0.603972         0.830523        -0.904020
 H        -0.357672        -0.996760        -1.022977
 H         1.884410        -2.117278         0.960327
 H         2.926757        -1.986306        -0.562874
 H         3.988419        -1.441510         1.611477
 H         4.222138         2.040892        -0.453351
 H         1.976277         1.440013        -1.760268
 H         2.779525        -0.131475        -1.913833
 H         3.483351         1.261388         2.045959
