19
Iteration:  1138charge 0 multiplicity 1
 C         0.107393        -0.411445        -0.639730
 C         1.488569        -0.156342        -0.048883
 C         2.283236        -1.370023         0.440424
 C         3.541666        -0.643913         0.983127
 O         4.312986        -0.263066        -0.225140
 C         3.654683         1.035608        -0.310927
 C         2.371601         0.824950        -1.075889
 C         3.048785         0.852922         1.203533
 O         1.633330         0.787049         1.037335
 H        -0.611880        -0.936633         0.095586
 H        -0.332363         0.489303        -1.066003
 H         0.335620        -1.268325        -1.309613
 H         1.776140        -1.869108         1.271635
 H         2.687927        -2.085714        -0.416628
 H         4.199885        -1.102973         1.633330
 H         4.392974         1.906312        -0.384697
 H         1.835405         1.781964        -1.235973
 H         2.572078         0.543752        -2.151009
 H         3.362673         1.351679         2.110466
