19
Iteration:  1094charge 0 multiplicity 1
 C         0.028391        -0.411011        -0.581068
 C         1.463764        -0.024152        -0.108732
 C         2.318027        -1.355019         0.417343
 C         3.554674        -0.682195         0.913234
 O         4.393249        -0.189646        -0.161246
 C         3.607267         1.023874        -0.269106
 C         2.406595         0.737979        -1.115541
 C         3.075298         0.793905         1.190333
 O         1.633450         0.786978         1.087175
 H        -0.577915        -1.223363        -0.047996
 H        -0.597200         0.452420        -0.854856
 H         0.305110        -0.924460        -1.530337
 H         1.691823        -1.702035         1.182605
 H         2.536108        -2.183944        -0.356310
 H         3.997172        -1.242408         1.672379
 H         4.320432         1.782931        -0.607131
 H         1.866516         1.649787        -1.408284
 H         2.587787         0.167877        -2.055631
 H         3.312163         1.445606         2.000772
