19
Iteration:   634
 C        -0.067139        -0.283854        -0.288541
 C         1.489761        -0.123910        -0.216585
 C         2.343397        -1.364199         0.256829
 C         3.607782        -0.649301         0.964565
 O         4.483501        -0.189579        -0.057990
 C         3.619330         1.029805        -0.193562
 C         2.437517         0.622356        -1.203022
 C         2.987311         0.817115         1.137301
 O         1.574885         0.752183         0.921980
 H        -0.566340        -0.728085         0.513315
 H        -0.353778         0.760764        -0.378186
 H        -0.353355        -0.704158        -1.235758
 H         1.750353        -1.927867         0.955173
 H         2.642313        -2.043910        -0.646793
 H         3.845091        -1.175046         1.809604
 H         4.205456         1.982241        -0.468694
 H         2.029810         1.572969        -1.722561
 H         2.855339         0.034508        -2.009072
 H         3.313799         1.423704         2.036008
