19
Iteration:  2161
 C         0.224374        -0.464513        -0.675727
 C         1.530509        -0.057443        -0.040352
 C         2.192721        -1.303900         0.497102
 C         3.483381        -0.694644         1.011260
 O         4.382795        -0.286965        -0.259817
 C         3.623314         1.033481        -0.300894
 C         2.303384         0.816027        -1.104762
 C         3.120793         0.815332         1.114528
 O         1.598032         0.821722         1.123071
 H        -0.435776        -1.051643        -0.045527
 H        -0.334637         0.460425        -0.987778
 H         0.628635        -1.082526        -1.527885
 H         1.576681        -1.615997         1.340934
 H         2.334212        -2.086487        -0.322345
 H         4.014567        -1.413854         1.601125
 H         4.372291         1.889887        -0.472919
 H         1.717208         1.762512        -1.241204
 H         2.556099         0.309216        -1.982625
 H         3.449407         1.317754         1.976621
