19
Iteration:  4758charge 0 multiplicity 1
 C         0.021385        -0.252024        -0.644052
 C         1.494116        -0.001771        -0.094533
 C         2.215892        -1.331098         0.340082
 C         3.439075        -0.683164         0.931494
 O         4.445173        -0.319324        -0.019273
 C         3.691378         0.999093        -0.322141
 C         2.479317         0.696202        -1.120464
 C         3.070734         0.728604         1.158499
 O         1.584092         0.855837         1.121558
 H        -0.004483        -0.089806        -1.706792
 H        -0.156695        -1.345722        -0.575684
 H        -0.864297         0.157510        -0.132808
 H         1.671638        -2.033766         0.963522
 H         2.469188        -1.950467        -0.540470
 H         4.025097        -1.040698         1.743904
 H         4.491939         1.729245        -0.501598
 H         2.132702         1.621933        -1.728057
 H         2.685186        -0.074641        -1.988600
 H         3.452887         1.350772         2.016800
