19
Iteration:    50charge 0 multiplicity 1
 C        -0.147373        -0.306398        -0.369289
 C         1.470649        -0.081925        -0.145318
 C         2.337434        -1.284647         0.194132
 C         3.573397        -0.644088         0.967573
 O         4.586815        -0.214849        -0.015722
 C         3.633572         0.965858        -0.265716
 C         2.480368         0.620972        -1.234094
 C         2.988334         0.842246         1.146837
 O         1.546986         0.753094         1.045573
 H        -0.704018        -0.758921         0.462544
 H        -0.637356         0.697322        -0.458608
 H        -0.355957        -0.914982        -1.277223
 H         1.732047        -1.949284         0.841763
 H         2.629573        -1.698558        -0.766891
 H         3.906672        -1.334574         1.812538
 H         4.340456         1.919475        -0.651374
 H         2.062800         1.508433        -1.733266
 H         2.842900        -0.106173        -2.036307
 H         3.326567         1.456352         1.967725
