19
Iteration:  3754charge 0 multiplicity 1
 C         0.217081        -0.330569        -0.667465
 C         1.518887        -0.011607        -0.071948
 C         2.213644        -1.329694         0.537089
 C         3.539939        -0.712857         0.932533
 O         4.304281        -0.327296        -0.261133
 C         3.665567         0.962797        -0.227792
 C         2.447863         0.821542        -1.092514
 C         2.990453         0.789131         1.160603
 O         1.570096         0.820027         1.064157
 H        -0.399612        -0.815909         0.083449
 H        -0.091763         0.610278        -1.207256
 H         0.426288        -1.023754        -1.434523
 H         1.536536        -1.914610         1.254747
 H         2.394929        -2.197299        -0.160855
 H         4.139853        -1.181114         1.717256
 H         4.429970         1.793693        -0.291577
 H         1.945919         1.787482        -1.556590
 H         2.602266         0.293426        -2.046204
 H         3.214170         1.275081         2.109565
