19
Iteration:    73
 C         0.113238        -0.317164        -0.576178
 C         1.541013        -0.028406        -0.085654
 C         2.297117        -1.370409         0.345588
 C         3.503954        -0.681443         0.932181
 O         4.430606        -0.180553        -0.086214
 C         3.604976         0.959836        -0.286982
 C         2.283493         0.653547        -1.110295
 C         3.061379         0.784822         1.123843
 O         1.620054         0.813992         1.081767
 H        -0.516649        -0.792280         0.183562
 H        -0.442764         0.616363        -0.900229
 H         0.234752        -1.007287        -1.449946
 H         1.713440        -1.893094         1.185345
 H         2.563231        -1.990365        -0.484325
 H         3.929159        -1.149638         1.831231
 H         4.239481         1.815975        -0.840338
 H         1.878082         1.629675        -1.290582
 H         2.585836         0.146428        -2.087746
 H         3.459155         1.257736         1.981875
