19
Iteration:   326charge 0 multiplicity 1
 C        -0.063590        -0.156323        -0.428149
 C         1.376591        -0.193261        -0.087333
 C         2.366493        -1.358481         0.171688
 C         3.619439        -0.729548         0.855872
 O         4.574685        -0.059020         0.096054
 C         3.588769         0.951154        -0.269220
 C         2.397746         0.563128        -1.186429
 C         2.950076         0.773387         1.083341
 O         1.592081         0.785086         1.060221
 H        -0.757075        -0.490115         0.384721
 H        -0.162512         0.904547        -0.490003
 H        -0.378846        -0.616316        -1.340440
 H         2.054515        -2.163666         0.825969
 H         2.670382        -1.803040        -0.678712
 H         4.107279        -1.285113         1.649015
 H         4.134627         1.933548        -0.662390
 H         1.891616         1.471402        -1.656068
 H         2.782814        -0.129870        -2.023600
 H         3.479428         1.137919         1.984924
