19
Iteration:  2261charge 0 multiplicity 1
 C         0.064319        -0.331901        -0.492760
 C         1.551270        -0.116263        -0.146752
 C         2.261889        -1.340112         0.348138
 C         3.455580        -0.667188         0.980887
 O         4.414320        -0.207104        -0.141092
 C         3.625581         0.976180        -0.279166
 C         2.398030         0.695594        -1.105215
 C         3.065788         0.829839         1.164835
 O         1.614399         0.779313         1.008306
 H        -0.516046        -0.840517         0.302293
 H        -0.301037         0.639131        -0.836841
 H         0.077332        -1.005114        -1.353370
 H         1.609156        -1.728138         1.093559
 H         2.618317        -2.145669        -0.406651
 H         4.081225        -1.042183         1.778353
 H         4.278192         1.820967        -0.614561
 H         1.865077         1.630981        -1.292090
 H         2.657238         0.215184        -2.024873
 H         3.416541         1.520217         2.001340
