19
Iteration:  1363charge 0 multiplicity 1
 C        -0.051754        -0.315470        -0.480903
 C         1.482853        -0.088977        -0.139976
 C         2.307022        -1.322051         0.288594
 C         3.559029        -0.705597         0.942801
 O         4.538381        -0.146786        -0.081450
 C         3.602439         1.037218        -0.294670
 C         2.410082         0.613562        -1.185270
 C         3.037814         0.797760         1.172800
 O         1.606393         0.761311         1.074007
 H        -0.439456        -0.890297         0.417129
 H        -0.591031         0.667737        -0.599404
 H        -0.043344        -0.944397        -1.391638
 H         1.773444        -1.883928         1.085118
 H         2.430440        -1.958357        -0.673312
 H         3.733263        -1.220130         1.984161
 H         4.018864         2.042632        -0.522138
 H         1.989402         1.474890        -1.656527
 H         2.718409        -0.006724        -2.029351
 H         3.247203         1.465680         2.028620
