19
Iteration:  2149
 C         0.216509        -0.554881        -0.709027
 C         1.448186        -0.027758        -0.049104
 C         2.183137        -1.329309         0.453996
 C         3.467933        -0.709846         0.888267
 O         4.287514        -0.249822        -0.204902
 C         3.652254         1.015177        -0.321669
 C         2.375406         0.827960        -1.080677
 C         3.074552         0.794323         1.215524
 O         1.752240         0.884091         1.192794
 H        -0.474289        -1.190883        -0.162008
 H        -0.388659         0.219774        -1.289468
 H         0.512850        -1.149316        -1.639493
 H         1.679910        -1.687204         1.396792
 H         2.203103        -2.243647        -0.175211
 H         4.039919        -1.088660         1.723738
 H         4.275825         1.922748        -0.670004
 H         1.856772         1.806014        -1.370204
 H         2.467687         0.323992        -2.025383
 H         3.491095         1.530174         1.808611
