19
Iteration:  3871
 C         0.169171        -0.290529        -0.778577
 C         1.521356        -0.108875        -0.052698
 C         2.176710        -1.334116         0.443751
 C         3.492463        -0.692227         1.028012
 O         4.397799        -0.366521        -0.151414
 C         3.637649         1.019875        -0.324625
 C         2.376069         0.775133        -1.070480
 C         3.114018         0.800397         1.149165
 O         1.608603         0.852583         1.125139
 H        -0.601483        -0.705072        -0.090111
 H        -0.411442         0.538090        -1.361125
 H         0.216873        -1.149382        -1.590533
 H         1.555797        -1.923193         1.093771
 H         2.546238        -2.054572        -0.273363
 H         4.101798        -1.265476         1.769538
 H         4.340890         1.881108        -0.494652
 H         1.774579         1.731151        -1.102907
 H         2.345701         0.451623        -2.042940
 H         3.497003         1.456273         1.947481
