19
Iteration:  3761charge 0 multiplicity 1
 C         0.209012        -0.288339        -0.663591
 C         1.542725        -0.091901        -0.077050
 C         2.185812        -1.314434         0.468526
 C         3.543248        -0.699974         0.928410
 O         4.299733        -0.337061        -0.153490
 C         3.656901         0.992151        -0.256975
 C         2.421595         0.781719        -1.138323
 C         3.023477         0.852753         1.144712
 O         1.603946         0.760509         1.066441
 H        -0.441660        -0.685077         0.099731
 H        -0.290679         0.644958        -0.919662
 H         0.364990        -1.011959        -1.514160
 H         1.602046        -1.735361         1.273586
 H         2.381906        -2.017367        -0.313716
 H         4.047778        -1.205738         1.745263
 H         4.343386         1.820351        -0.460603
 H         1.886446         1.725919        -1.248078
 H         2.678545         0.374546        -2.089718
 H         3.287730         1.301602         2.114188
