19
Iteration:  3000
 C         0.131082        -0.290483        -0.700454
 C         1.517495        -0.004302        -0.100899
 C         2.309840        -1.337574         0.477678
 C         3.532920        -0.694159         1.044117
 O         4.298218        -0.306107        -0.207398
 C         3.629286         0.901577        -0.293510
 C         2.383694         0.767082        -1.108477
 C         3.065672         0.822358         1.192305
 O         1.602506         0.814087         1.057964
 H        -0.641553        -0.620165         0.061194
 H        -0.207142         0.616435        -1.131885
 H         0.237098        -1.103201        -1.419691
 H         1.684385        -1.967282         1.131514
 H         2.655179        -2.080872        -0.275826
 H         3.979514        -1.172455         1.896295
 H         4.343912         1.771023        -0.557593
 H         1.870289         1.702035        -1.360615
 H         2.598553         0.182059        -1.983539
 H         3.539474         1.346523         2.065459
