19
Iteration:  2729
 C         0.198511        -0.359362        -0.618139
 C         1.590794        -0.001650        -0.129258
 C         2.286182        -1.376971         0.481235
 C         3.492645        -0.647334         1.020835
 O         4.208262        -0.325204        -0.219446
 C         3.591918         0.914326        -0.246384
 C         2.337908         0.904149        -1.186453
 C         3.084148         0.752610         1.212089
 O         1.675697         0.822124         1.023420
 H        -0.423498        -1.029713         0.128602
 H        -0.210769         0.496124        -1.145964
 H         0.549654        -1.036319        -1.429108
 H         1.512193        -1.697717         1.164777
 H         2.806991        -2.167929        -0.125998
 H         4.042720        -1.157390         1.763648
 H         4.419202         1.659391        -0.296199
 H         1.736322         1.774938        -1.169279
 H         2.432752         0.387359        -2.149261
 H         3.315872         1.367502         2.147607
