19
Iteration:  1335charge 0 multiplicity 1
 C        -0.015098        -0.199062        -0.328433
 C         1.495896        -0.188328        -0.226067
 C         2.373805        -1.367829         0.224523
 C         3.585102        -0.726855         0.880242
 O         4.525972        -0.055313         0.021036
 C         3.614344         0.982718        -0.289300
 C         2.437438         0.552240        -1.204698
 C         2.923041         0.805565         1.175031
 O         1.532957         0.772885         1.012675
 H        -0.308838        -0.584673         0.649468
 H        -0.177980         0.856454        -0.441580
 H        -0.571374        -0.812302        -1.037300
 H         1.921040        -1.979076         0.999359
 H         2.586415        -1.971308        -0.679090
 H         3.846704        -1.306961         1.715403
 H         4.048396         1.911349        -0.668746
 H         2.116903         1.522086        -1.688957
 H         2.756855        -0.020438        -2.116838
 H         3.182834         1.378969         2.116559
