19
Iteration:  3773charge 0 multiplicity 1
 C         0.069580        -0.250400        -0.616002
 C         1.551366        -0.089395        -0.202024
 C         2.273017        -1.341350         0.353596
 C         3.434094        -0.649806         1.041595
 O         4.400452        -0.280454        -0.088955
 C         3.629738         0.973877        -0.298831
 C         2.406930         0.711638        -1.099241
 C         3.068191         0.788480         1.205824
 O         1.650571         0.763148         1.063672
 H        -0.501383        -0.838647         0.041966
 H        -0.312493         0.749309        -0.884083
 H        -0.060371        -0.768681        -1.597336
 H         1.602826        -1.709062         1.141678
 H         2.462694        -2.164754        -0.302331
 H         3.969120        -1.263315         1.727560
 H         4.289923         1.754470        -0.735821
 H         1.789318         1.651840        -1.217609
 H         2.571029         0.332364        -2.038982
 H         3.496659         1.587624         1.819115
