19
Iteration:  4008charge 0 multiplicity 1
 C         0.142910        -0.270179        -0.632483
 C         1.538856        -0.018440        -0.148516
 C         2.237302        -1.276719         0.522296
 C         3.560514        -0.768390         0.897833
 O         4.369006        -0.319611        -0.184575
 C         3.632338         1.032779        -0.205123
 C         2.468992         0.782857        -1.100756
 C         2.977891         0.717895         1.171483
 O         1.565128         0.769155         1.014168
 H        -0.183704        -1.325265        -0.313511
 H        -0.468958         0.596966        -0.447802
 H         0.221283        -0.463583        -1.727462
 H         1.601025        -1.371711         1.468857
 H         2.314695        -2.224560        -0.066761
 H         4.159070        -1.202330         1.710014
 H         4.292185         1.848324        -0.452522
 H         1.934275         1.726698        -1.253297
 H         2.576888         0.267750        -2.159667
 H         3.215921         1.328723         2.072193
