19
Iteration:  4012
 C         0.172011        -0.289468        -0.667702
 C         1.549718        -0.027197        -0.118474
 C         2.236894        -1.298853         0.549994
 C         3.566250        -0.757926         0.881464
 O         4.345456        -0.326777        -0.215428
 C         3.647583         1.002462        -0.210954
 C         2.489659         0.826352        -1.070504
 C         2.954138         0.780761         1.186467
 O         1.552411         0.765666         1.017597
 H        -0.153426        -1.177525        -0.232509
 H        -0.589084         0.457017        -0.454208
 H         0.183691        -0.530261        -1.743012
 H         1.576713        -1.445087         1.399257
 H         2.259959        -2.222731        -0.017828
 H         4.063978        -1.317316         1.691478
 H         4.384618         1.728331        -0.623094
 H         1.874170         1.750518        -1.376751
 H         2.644048         0.423411        -2.022450
 H         3.309084         1.250900         2.101614
