19
Iteration:  1319charge 0 multiplicity 1
 C        -0.059163        -0.204698        -0.383153
 C         1.513723        -0.130012        -0.167298
 C         2.390527        -1.400313         0.256088
 C         3.572241        -0.600441         0.997262
 O         4.537543        -0.175660        -0.073802
 C         3.567166         1.003336        -0.213538
 C         2.395382         0.648419        -1.189233
 C         2.945953         0.753317         1.143106
 O         1.568763         0.728648         0.944731
 H        -0.492942        -0.463376         0.602281
 H        -0.499522         0.811999        -0.581518
 H        -0.156670        -0.915012        -1.215368
 H         1.793024        -2.009789         0.975016
 H         2.839714        -2.044229        -0.536491
 H         4.304113        -1.152898         1.702132
 H         4.172582         1.909284        -0.398273
 H         1.753499         1.461494        -1.520867
 H         2.726207         0.057875        -2.024986
 H         3.265871         1.435094         1.904795
