19
Iteration:  2271charge 0 multiplicity 1
 C         0.215124        -0.370626        -0.559866
 C         1.556345        -0.087713        -0.149118
 C         2.291942        -1.332637         0.461990
 C         3.535720        -0.668431         0.953971
 O         4.301098        -0.290046        -0.148405
 C         3.659733         0.995022        -0.279442
 C         2.350847         0.754549        -1.152168
 C         2.989025         0.873056         1.132160
 O         1.609328         0.774898         1.083946
 H        -0.431257        -0.688315         0.280030
 H        -0.272219         0.611886        -0.831617
 H         0.086537        -0.971448        -1.471118
 H         1.672699        -1.850058         1.178160
 H         2.521495        -2.149242        -0.362858
 H         3.951079        -1.390250         1.643216
 H         4.333644         1.801007        -0.714507
 H         1.825442         1.772693        -1.278989
 H         2.538101         0.400663        -2.129597
 H         3.337632         1.519529         1.993874
