19
Iteration:   299charge 0 multiplicity 1
 C         0.025727        -0.223019        -0.434405
 C         1.457083        -0.102576        -0.134518
 C         2.266110        -1.339455         0.271786
 C         3.550130        -0.663993         0.969209
 O         4.467515        -0.144846        -0.100605
 C         3.607459         1.010190        -0.236946
 C         2.480282         0.688014        -1.217445
 C         2.985843         0.775618         1.159499
 O         1.589249         0.644473         1.007753
 H        -0.380700        -0.627323         0.500646
 H        -0.380239         0.831786        -0.535837
 H        -0.206006        -0.859574        -1.338299
 H         1.764793        -1.845563         1.146229
 H         2.725403        -2.207738        -0.391628
 H         4.152179        -1.139036         1.842015
 H         4.085849         1.904875        -0.455433
 H         1.928761         1.567611        -1.572485
 H         2.888816         0.163451        -2.120429
 H         3.355667         1.253178         2.044138
