19
Iteration:  4542charge 0 multiplicity 1
 C         0.024287        -0.169991        -0.496345
 C         1.499462        -0.123141        -0.217856
 C         2.280771        -1.290964         0.229451
 C         3.514877        -0.716922         0.943151
 O         4.427720        -0.286507        -0.097240
 C         3.669844         1.009097        -0.216306
 C         2.471764         0.704897        -1.084972
 C         2.968337         0.768792         1.232528
 O         1.555582         0.736014         0.978308
 H        -0.224118        -0.196439         0.537417
 H        -0.133776         0.789831        -1.007894
 H        -0.400371        -1.116726        -0.835337
 H         1.690293        -1.871884         0.967281
 H         2.756339        -1.917084        -0.530086
 H         4.077054        -1.199281         1.792687
 H         4.285511         1.880396        -0.458379
 H         2.065825         1.559977        -1.384242
 H         3.034199         0.198711        -1.882903
 H         3.273917         1.269007         2.185733
