19
Iteration:   118
 C         0.135763        -0.378748        -0.650729
 C         1.537516        -0.060576        -0.114120
 C         2.281761        -1.374803         0.493725
 C         3.561800        -0.635342         0.988947
 O         4.267614        -0.336580        -0.268304
 C         3.643610         1.044749        -0.298557
 C         2.408548         0.875064        -1.121279
 C         3.043342         0.801702         1.225360
 O         1.598088         0.749279         1.067916
 H        -0.404141        -0.899413         0.162558
 H        -0.445333         0.504991        -1.046125
 H         0.396563        -1.083975        -1.475683
 H         1.660794        -1.566127         1.459243
 H         2.441358        -2.336518         0.049692
 H         4.248199        -1.078449         1.689822
 H         4.277351         2.072229        -0.525620
 H         1.902464         1.775008        -1.395821
 H         2.724145         0.180794        -1.957935
 H         3.309556         1.336431         2.124021
