19
Iteration:  3172charge 0 multiplicity 1
 C         0.167626        -0.361959        -0.693489
 C         1.518958        -0.058522        -0.080216
 C         2.306333        -1.377006         0.483792
 C         3.508464        -0.699176         0.981231
 O         4.294793        -0.382248        -0.199286
 C         3.678368         0.960915        -0.251189
 C         2.393782         0.871211        -1.068509
 C         3.037283         0.854341         1.180415
 O         1.583221         0.852590         1.042354
 H        -0.663108        -0.840830        -0.067457
 H        -0.161805         0.532656        -1.251107
 H         0.370979        -1.206940        -1.320692
 H         1.636686        -1.796383         1.213041
 H         2.554798        -2.076039        -0.363833
 H         4.201195        -1.311056         1.604681
 H         4.426258         1.739125        -0.509232
 H         1.801518         1.912468        -1.129292
 H         2.414298         0.391980        -2.003164
 H         3.352900         1.625037         1.879530
