19
Iteration:   792
 C        -0.004309        -0.288367        -0.511343
 C         1.489251        -0.118916        -0.132768
 C         2.341411        -1.313781         0.357471
 C         3.581850        -0.636549         0.980857
 O         4.424509        -0.191847        -0.083869
 C         3.607623         1.000390        -0.308886
 C         2.383961         0.701054        -1.198637
 C         3.024554         0.830120         1.124459
 O         1.602284         0.683002         1.069905
 H        -0.555205        -0.882761         0.272008
 H        -0.430422         0.720613        -0.536419
 H        -0.196095        -0.811019        -1.465393
 H         1.785730        -2.013846         1.072441
 H         2.679906        -2.013166        -0.383143
 H         4.203698        -1.324098         1.719275
 H         4.072535         1.928258        -0.503497
 H         1.896660         1.709388        -1.439484
 H         2.892646         0.096978        -2.080193
 H         3.444659         1.418221         1.997896
