19
Iteration:  1372charge 0 multiplicity 1
 C         0.010466        -0.377247        -0.562404
 C         1.467619        -0.101161        -0.131074
 C         2.327762        -1.286841         0.333926
 C         3.572752        -0.669665         0.962561
 O         4.488321        -0.205868        -0.140092
 C         3.583337         0.983530        -0.241639
 C         2.385978         0.680830        -1.159299
 C         3.013322         0.816283         1.163528
 O         1.592412         0.817489         1.097363
 H        -0.497702        -0.860602         0.309072
 H        -0.506379         0.629197        -0.630837
 H        -0.090042        -0.924248        -1.545231
 H         1.791895        -1.900936         1.158198
 H         2.598751        -2.004015        -0.425972
 H         4.161514        -1.270473         1.622990
 H         4.247729         1.823283        -0.661814
 H         1.959098         1.645744        -1.445732
 H         2.646534         0.025926        -1.975804
 H         3.378478         1.280376         2.056415
