19
Iteration:  3914charge 0 multiplicity 1
 C         0.117288        -0.330971        -0.545977
 C         1.500312        -0.047696        -0.174863
 C         2.197763        -1.324597         0.437469
 C         3.487624        -0.716793         0.912541
 O         4.447543        -0.313921        -0.201302
 C         3.687319         1.011701        -0.199019
 C         2.493835         0.756427        -1.096916
 C         2.968623         0.779726         1.194865
 O         1.566605         0.823444         1.024943
 H        -0.614253        -0.421496         0.233550
 H        -0.073087         0.565332        -1.249289
 H        -0.088758        -1.265570        -1.189137
 H         1.559327        -1.725967         1.208578
 H         2.439993        -1.991633        -0.374719
 H         3.918111        -1.378109         1.693324
 H         4.230793         1.949526        -0.484322
 H         1.984430         1.728901        -1.353589
 H         2.971406         0.360494        -1.947980
 H         3.328208         1.265508         2.109672
