19
Iteration:   132
 C         0.183564        -0.385705        -0.567364
 C         1.530179        -0.086329        -0.125419
 C         2.242634        -1.278879         0.442138
 C         3.533677        -0.689709         0.949106
 O         4.361928        -0.250796        -0.174861
 C         3.606073         1.001773        -0.228906
 C         2.344513         0.739012        -1.118919
 C         3.038527         0.802346         1.161236
 O         1.651969         0.798486         1.031193
 H        -0.503369        -0.918182         0.156172
 H        -0.275907         0.550067        -0.905591
 H         0.159811        -1.004392        -1.475989
 H         1.541217        -1.824654         1.153219
 H         2.469461        -1.934959        -0.480417
 H         4.032141        -1.252836         1.691931
 H         4.316460         1.686689        -0.485122
 H         1.682633         1.618966        -1.264355
 H         2.552788         0.357267        -2.068265
 H         3.370277         1.504502         1.998968
