19
Iteration:  2730charge 0 multiplicity 1
 C         0.207644        -0.363991        -0.621847
 C         1.582462        -0.001007        -0.130529
 C         2.282785        -1.378991         0.486238
 C         3.495146        -0.653346         1.012621
 O         4.216256        -0.320998        -0.219850
 C         3.593811         0.915849        -0.232157
 C         2.326598         0.905567        -1.178357
 C         3.087426         0.753349         1.202075
 O         1.679246         0.828120         1.021261
 H        -0.411232        -1.040674         0.128214
 H        -0.202421         0.479954        -1.138705
 H         0.534801        -1.019320        -1.488318
 H         1.479243        -1.692543         1.193546
 H         2.746050        -2.185150        -0.119215
 H         4.029437        -1.156513         1.771592
 H         4.404780         1.635732        -0.287772
 H         1.746011         1.742261        -1.153148
 H         2.416085         0.376621        -2.167329
 H         3.329728         1.393264         2.141577
