19
Iteration:  2269
 C         0.185510        -0.370130        -0.532112
 C         1.563753        -0.088333        -0.155801
 C         2.294198        -1.333097         0.437347
 C         3.505001        -0.673854         0.952180
 O         4.322027        -0.266597        -0.147091
 C         3.659330         0.993150        -0.272098
 C         2.352901         0.727645        -1.136082
 C         3.009919         0.872959         1.142636
 O         1.609204         0.772848         1.068951
 H        -0.444192        -0.712327         0.276709
 H        -0.244666         0.638064        -0.873850
 H         0.070818        -0.952867        -1.497109
 H         1.613129        -1.861153         1.166734
 H         2.522215        -2.135510        -0.334724
 H         3.963742        -1.332669         1.675979
 H         4.334219         1.789659        -0.730591
 H         1.839527         1.796779        -1.299138
 H         2.569182         0.395106        -2.138442
 H         3.344077         1.507341         1.938103
