19
Iteration:  2016
 C         0.161974        -0.443979        -0.654198
 C         1.553008        -0.086354        -0.157222
 C         2.349663        -1.358642         0.484638
 C         3.566184        -0.658557         0.968269
 O         4.277713        -0.308314        -0.240661
 C         3.681299         0.929842        -0.320779
 C         2.358026         0.890605        -1.112874
 C         2.970947         0.840878         1.210844
 O         1.574505         0.827153         1.136672
 H        -0.389032        -0.976030         0.201058
 H        -0.342624         0.558477        -0.819997
 H         0.293452        -1.028241        -1.617700
 H         1.594752        -1.654006         1.334057
 H         2.580501        -2.135333        -0.157314
 H         4.306712        -1.152068         1.632759
 H         4.247084         1.853074        -0.592071
 H         1.907858         1.889619        -1.187518
 H         2.504341         0.370223        -2.132215
 H         3.279240         1.380257         2.140167
