19
Iteration:  1939charge 0 multiplicity 1
 C        -0.111817        -0.157800        -0.349144
 C         1.500093        -0.147371        -0.150211
 C         2.403205        -1.429471         0.196636
 C         3.554708        -0.646163         0.977938
 O         4.504514        -0.086189        -0.015151
 C         3.651691         0.983621        -0.259413
 C         2.407030         0.612094        -1.160357
 C         2.966950         0.792032         1.194494
 O         1.589368         0.703944         0.907007
 H        -0.487712        -0.629125         0.633503
 H        -0.487892         0.839659        -0.627347
 H        -0.366800        -0.755574        -1.246030
 H         1.781308        -2.125613         0.876365
 H         2.735030        -1.979048        -0.594002
 H         4.070243        -1.105033         1.840889
 H         4.212066         1.836998        -0.825387
 H         1.871636         1.371441        -1.678715
 H         2.845810        -0.117106        -1.930504
 H         3.180872         1.472497         2.045820
