19
Iteration:   995charge 0 multiplicity 1
 C         0.145467        -0.440625        -0.609689
 C         1.563790        -0.116529        -0.172976
 C         2.256777        -1.354209         0.434067
 C         3.561371        -0.673197         0.979791
 O         4.353649        -0.256472        -0.252282
 C         3.565434         1.030792        -0.217094
 C         2.383616         0.829364        -1.169272
 C         3.052756         0.806574         1.176562
 O         1.627300         0.836256         1.182669
 H        -0.534034        -0.869665         0.191408
 H        -0.430076         0.446252        -0.975470
 H         0.253775        -1.203486        -1.414088
 H         1.591437        -1.600439         1.174663
 H         2.458785        -2.186272        -0.334383
 H         4.120758        -1.332220         1.539267
 H         3.983514         1.979667        -0.508578
 H         1.703326         1.609382        -1.478338
 H         2.733695         0.430209        -2.124754
 H         3.390997         1.241943         2.153499
