19
Iteration:  1411charge 0 multiplicity 1
 C         0.201452        -0.487310        -0.707307
 C         1.592219        -0.117706        -0.193580
 C         2.237598        -1.327423         0.575717
 C         3.535089        -0.622153         0.942605
 O         4.252025        -0.295368        -0.256456
 C         3.631098         1.004390        -0.312661
 C         2.333358         0.876411        -1.089262
 C         3.069231         0.833004         1.182609
 O         1.631156         0.776106         1.199445
 H        -0.468392        -0.911649         0.039189
 H        -0.261774         0.459553        -0.928272
 H         0.220107        -1.060803        -1.649206
 H         1.475547        -1.603678         1.261439
 H         2.604601        -2.138604        -0.089925
 H         4.259737        -1.210721         1.625981
 H         4.235106         1.857471        -0.504443
 H         1.652872         1.737582        -1.316366
 H         2.711147         0.584682        -2.094396
 H         3.551060         1.455687         1.956473
