19
Iteration:   172
 C        -0.128409        -0.204733        -0.363614
 C         1.467199        -0.100255        -0.158094
 C         2.328008        -1.264265         0.207870
 C         3.543010        -0.677377         0.965300
 O         4.579599        -0.165040         0.050890
 C         3.701524         0.962626        -0.259668
 C         2.391593         0.594263        -1.252499
 C         2.992926         0.826098         1.105129
 O         1.572310         0.668504         0.985984
 H        -0.524742        -0.649035         0.554747
 H        -0.571085         0.810588        -0.373073
 H        -0.355340        -0.852130        -1.233216
 H         1.927459        -2.038215         0.880966
 H         2.679520        -1.701979        -0.660322
 H         4.020167        -1.229850         1.774225
 H         4.026679         2.099467        -0.515277
 H         2.011255         1.464216        -1.767640
 H         2.811937        -0.130059        -2.032022
 H         3.313343         1.308155         2.013268
