19
Iteration:  4427charge 0 multiplicity 1
 C         0.067890        -0.266017        -0.624485
 C         1.455792        -0.016003        -0.113110
 C         2.275988        -1.305695         0.432313
 C         3.506155        -0.724421         0.878236
 O         4.444839        -0.320114        -0.130176
 C         3.724669         0.946821        -0.213981
 C         2.391832         0.780033        -1.129136
 C         3.000863         0.766749         1.193730
 O         1.609668         0.830208         1.054554
 H        -0.414247        -1.163093        -0.116054
 H        -0.575155         0.658577        -0.836953
 H         0.132887        -0.799326        -1.601487
 H         1.693040        -1.845733         1.194809
 H         2.479279        -1.982541        -0.433602
 H         3.873459        -1.396562         1.696840
 H         4.499056         1.746635        -0.360445
 H         1.821756         1.739857        -1.356353
 H         2.641999         0.285175        -2.041136
 H         3.215854         1.195371         2.147048
