19
Iteration:   248
 C         0.201283        -0.489928        -0.733671
 C         1.484388         0.010233        -0.011468
 C         2.201054        -1.269669         0.412166
 C         3.505603        -0.725319         0.915733
 O         4.375657        -0.318827        -0.168322
 C         3.645485         0.997732        -0.366382
 C         2.295722         0.861450        -1.070858
 C         3.073233         0.773902         1.196492
 O         1.653525         0.819248         1.197528
 H        -0.439524        -1.109806        -0.113204
 H        -0.290512         0.356965        -1.212998
 H         0.583615        -1.083917        -1.562421
 H         1.747350        -1.748697         1.279968
 H         2.490656        -1.974126        -0.266128
 H         4.125656        -1.279635         1.714383
 H         4.235335         2.024030        -0.577114
 H         1.673241         1.787523        -1.233370
 H         2.203695         0.371426        -2.157635
 H         3.636083         1.523001         1.729024
