19
Iteration:  2619charge 0 multiplicity 1
 C         0.121235        -0.312862        -0.568052
 C         1.550839        -0.069998        -0.181036
 C         2.306759        -1.326433         0.410137
 C         3.537114        -0.728105         0.997270
 O         4.367643        -0.297993        -0.168631
 C         3.539515         0.933673        -0.228651
 C         2.357000         0.765784        -1.178468
 C         3.050566         0.822785         1.193564
 O         1.650285         0.830368         1.054025
 H        -0.464662        -1.022194         0.106457
 H        -0.535648         0.613439        -0.672609
 H         0.036443        -0.642941        -1.607391
 H         1.733285        -1.684257         1.255644
 H         2.626931        -2.248910        -0.190833
 H         3.974185        -1.272009         1.800011
 H         4.297772         1.704779        -0.530640
 H         1.874525         1.755697        -1.240908
 H         2.619117         0.438643        -2.128819
 H         3.311897         1.593844         1.867970
