19
Iteration:   383
 C         0.182972        -0.420416        -0.587601
 C         1.551700        -0.051652        -0.136740
 C         2.224283        -1.373499         0.494526
 C         3.539196        -0.738517         0.945234
 O         4.306176        -0.267905        -0.301081
 C         3.641575         1.025167        -0.200175
 C         2.389580         0.907060        -1.091445
 C         2.992572         0.780444         1.190333
 O         1.647403         0.806050         1.029362
 H        -0.317597        -1.051058         0.159905
 H        -0.552687         0.304790        -0.923050
 H         0.338165        -1.062190        -1.464094
 H         1.648663        -1.739855         1.288110
 H         2.523340        -2.213674        -0.160144
 H         4.197468        -1.132362         1.616238
 H         4.305558         1.901266        -0.379974
 H         1.819190         1.868003        -1.122628
 H         2.560269         0.511790        -2.053439
 H         3.271662         1.236535         2.173681
