19
Iteration:  3388
 C        -0.119265        -0.185885        -0.434270
 C         1.497485        -0.057807        -0.114032
 C         2.314917        -1.375687         0.209618
 C         3.456138        -0.639065         0.900291
 O         4.533759        -0.119054        -0.019679
 C         3.711825         0.973766        -0.231810
 C         2.597684         0.538054        -1.231216
 C         2.949177         0.763437         1.181077
 O         1.537997         0.754978         1.031423
 H        -0.526557        -0.262256         0.646455
 H        -0.507797         0.760629        -0.851070
 H        -0.489318        -1.069264        -0.950985
 H         1.621773        -1.856132         0.983125
 H         2.647613        -2.067752        -0.666726
 H         4.004829        -1.332374         1.593774
 H         4.147490         1.881670        -0.594583
 H         2.339187         1.421536        -1.833229
 H         2.857543        -0.290857        -1.821293
 H         3.180833         1.217854         2.115243
