19
Iteration:  3432charge 0 multiplicity 1
 C         0.181988        -0.318793        -0.657853
 C         1.538320        -0.056445        -0.145596
 C         2.306446        -1.324586         0.418932
 C         3.507456        -0.700211         1.023469
 O         4.339532        -0.291618        -0.139512
 C         3.677924         0.923087        -0.393157
 C         2.381934         0.789287        -1.094691
 C         2.997701         0.766933         1.210559
 O         1.549848         0.863494         1.095755
 H        -0.405603        -0.943855         0.118838
 H        -0.203203         0.668701        -0.869515
 H         0.360930        -0.927624        -1.557624
 H         1.677974        -1.904769         1.201596
 H         2.503333        -2.172359        -0.379826
 H         4.086215        -1.227772         1.855142
 H         4.417112         1.677027        -0.670716
 H         1.835686         1.770119        -1.147864
 H         2.350503         0.304432        -2.018094
 H         3.357288         1.431557         1.992564
