19
Iteration:  4346charge 0 multiplicity 1
 C         0.080986        -0.199025        -0.591946
 C         1.533353        -0.082120        -0.141505
 C         2.224911        -1.387061         0.361840
 C         3.486143        -0.706299         0.940313
 O         4.401154        -0.238497        -0.104428
 C         3.637427         1.012229        -0.244710
 C         2.417659         0.720986        -1.143894
 C         3.080913         0.733612         1.202254
 O         1.630064         0.776666         1.044698
 H        -0.526853        -0.808376         0.049556
 H        -0.384429         0.774397        -0.607891
 H         0.162765        -0.569889        -1.636543
 H         1.546861        -1.722804         1.149041
 H         2.340012        -2.183888        -0.356973
 H         3.917413        -1.329755         1.716009
 H         4.330961         1.805813        -0.381136
 H         1.867445         1.691059        -1.425153
 H         2.630399         0.115033        -2.098550
 H         3.397776         1.283385         2.123173
