19
Iteration:  2409charge 0 multiplicity 1
 C        -0.041893        -0.358584        -0.559445
 C         1.481007        -0.030618        -0.133276
 C         2.246834        -1.306226         0.410799
 C         3.517345        -0.653521         0.941997
 O         4.486469        -0.216749        -0.167362
 C         3.662761         0.942251        -0.286050
 C         2.451524         0.673629        -1.149823
 C         3.012304         0.774212         1.189066
 O         1.610482         0.827325         1.119063
 H        -0.487390        -0.814239         0.283744
 H        -0.490206         0.615003        -0.902261
 H         0.142292        -0.965411        -1.491495
 H         1.702960        -1.987222         1.148651
 H         2.508400        -1.956583        -0.418310
 H         4.060507        -1.291084         1.670527
 H         4.255265         1.877297        -0.554457
 H         1.957881         1.498528        -1.698585
 H         2.737803        -0.007485        -1.916641
 H         3.418539         1.546685         1.860512
