19
Iteration:    23
 C         0.022550        -0.225349        -0.256485
 C         1.562337        -0.157864        -0.245210
 C         2.304472        -1.433101         0.268954
 C         3.522927        -0.704943         0.945487
 O         4.514374        -0.123094         0.015123
 C         3.592853         1.017931        -0.239333
 C         2.468280         0.669669        -1.252580
 C         2.918643         0.766815         1.123569
 O         1.577450         0.794080         0.897124
 H        -0.272358        -0.720167         0.676198
 H        -0.385525         0.787229        -0.214225
 H        -0.485384        -0.741850        -1.069627
 H         1.665902        -1.958100         0.984369
 H         2.556316        -2.112863        -0.572291
 H         3.892145        -1.382788         1.698721
 H         4.178741         1.924761        -0.399616
 H         1.912534         1.582561        -1.549036
 H         2.796714         0.133493        -2.122198
 H         3.287409         1.331072         1.996268
