19
Iteration:  3921
 C         0.067913        -0.282446        -0.501059
 C         1.525857        -0.108903        -0.159870
 C         2.207028        -1.342211         0.379534
 C         3.459875        -0.730246         0.906642
 O         4.448731        -0.258339        -0.136184
 C         3.682903         0.989269        -0.178951
 C         2.499136         0.780831        -1.115178
 C         2.981171         0.771259         1.166738
 O         1.599071         0.804998         0.970938
 H        -0.656648        -0.325514         0.325430
 H        -0.315201         0.507082        -1.053952
 H        -0.084562        -1.092460        -1.180209
 H         1.677231        -1.903121         1.190703
 H         2.385449        -2.168088        -0.343279
 H         3.958448        -1.090928         1.811991
 H         4.334510         1.798882        -0.437130
 H         2.035271         1.696550        -1.434454
 H         2.896730         0.339251        -2.131553
 H         3.234886         1.334550         2.082522
