19
Iteration:   316
 C        -0.024895        -0.134576        -0.397020
 C         1.509392        -0.165395        -0.203692
 C         2.338670        -1.412592         0.225247
 C         3.551123        -0.683506         0.878358
 O         4.597811        -0.052401         0.044040
 C         3.585535         0.986212        -0.273211
 C         2.367791         0.552126        -1.157605
 C         2.939354         0.752169         1.129919
 O         1.589266         0.736382         1.052124
 H        -0.429010        -0.539321         0.551754
 H        -0.275880         0.902269        -0.525783
 H        -0.261522        -0.615362        -1.323297
 H         1.729213        -2.025685         0.846564
 H         2.493052        -1.897527        -0.676784
 H         3.913274        -1.336926         1.583951
 H         4.175935         1.939905        -0.610196
 H         1.906037         1.432714        -1.652471
 H         2.558927        -0.130118        -1.986907
 H         3.315081         1.368489         1.999285
