19
Iteration:  1334charge 0 multiplicity 1
 C        -0.014410        -0.196404        -0.328708
 C         1.498367        -0.186262        -0.229600
 C         2.382545        -1.368776         0.230183
 C         3.584322        -0.727384         0.879594
 O         4.528639        -0.060996         0.016272
 C         3.614189         0.987274        -0.293338
 C         2.437216         0.551672        -1.204342
 C         2.918390         0.803743         1.184642
 O         1.531385         0.774091         1.009835
 H        -0.332785        -0.594520         0.635808
 H        -0.204637         0.842860        -0.465839
 H        -0.586763        -0.785175        -1.003944
 H         1.931450        -1.959604         0.967021
 H         2.576337        -1.994276        -0.704178
 H         3.857061        -1.308328         1.762376
 H         4.027512         1.884732        -0.636334
 H         2.080601         1.512969        -1.660414
 H         2.770236        -0.010701        -2.121437
 H         3.191969         1.412678         2.110923
