19
Iteration:  4973charge 0 multiplicity 1
 C         0.116942        -0.257737        -0.582456
 C         1.527819        -0.078873        -0.124226
 C         2.239848        -1.374656         0.494232
 C         3.510757        -0.636662         1.007145
 O         4.319083        -0.403944        -0.080051
 C         3.730126         0.980319        -0.239720
 C         2.485440         0.682254        -1.183858
 C         3.067089         0.880882         1.158809
 O         1.561206         0.864532         0.901500
 H        -0.432657        -0.646169         0.333444
 H        -0.350758         0.719049        -0.777184
 H         0.044386        -1.016001        -1.385315
 H         1.474598        -1.832342         1.106756
 H         2.278266        -2.061575        -0.373953
 H         3.958397        -1.061375         1.881344
 H         4.507584         1.732941        -0.482128
 H         1.790101         1.506438        -1.624794
 H         2.725446         0.109772        -2.070425
 H         3.101421         1.605906         2.051358
