19
Iteration:   152
 C        -0.001886        -0.306504        -0.491665
 C         1.454278        -0.055165        -0.117474
 C         2.331415        -1.402164         0.215553
 C         3.539769        -0.657690         0.948893
 O         4.529803        -0.197658        -0.017923
 C         3.635082         0.941390        -0.325424
 C         2.374645         0.655035        -1.122971
 C         3.009378         0.772753         1.144103
 O         1.585690         0.878765         1.081020
 H        -0.546576        -0.896105         0.309588
 H        -0.623637         0.588583        -0.728741
 H        -0.097613        -1.000158        -1.359456
 H         1.787459        -1.998320         1.030068
 H         2.712712        -2.011780        -0.626803
 H         3.931316        -1.236558         1.719646
 H         4.179014         1.940998        -0.669118
 H         2.072768         1.613214        -1.483506
 H         2.541767         0.094934        -2.024445
 H         3.402013         1.415131         1.979660
