19
Iteration:  2471
 C         0.081449        -0.349610        -0.560292
 C         1.489357        -0.062360        -0.116466
 C         2.240304        -1.344849         0.445666
 C         3.519789        -0.599024         0.936431
 O         4.380348        -0.349281        -0.183528
 C         3.705777         0.991208        -0.271099
 C         2.401309         0.810117        -1.078358
 C         3.018670         0.827813         1.155532
 O         1.628275         0.757400         1.019755
 H        -0.589429        -1.017729         0.043369
 H        -0.422473         0.516956        -0.913317
 H         0.079508        -0.907366        -1.507853
 H         1.713215        -1.703581         1.354260
 H         2.545102        -2.109664        -0.202754
 H         4.159892        -0.971644         1.803800
 H         4.404273         1.724919        -0.563890
 H         1.799709         1.670731        -1.262130
 H         2.701694         0.223726        -2.048631
 H         3.305989         1.536471         1.942272
