19
Iteration:  3237
 C        -0.019611        -0.075436        -0.388114
 C         1.580154        -0.185783        -0.232452
 C         2.299627        -1.456883         0.186621
 C         3.474747        -0.645683         1.024641
 O         4.519995        -0.149108        -0.003604
 C         3.624808         0.965707        -0.261510
 C         2.418036         0.548635        -1.147612
 C         2.950861         0.833415         1.164152
 O         1.589663         0.767435         0.944796
 H        -0.436606        -0.365168         0.654498
 H        -0.340126         0.954271        -0.672256
 H        -0.333304        -0.786169        -1.130987
 H         1.887028        -2.275979         0.713223
 H         2.943790        -2.010148        -0.536171
 H         3.763088        -1.253380         1.898813
 H         4.086993         1.926529        -0.433368
 H         1.909974         1.539658        -1.613497
 H         2.815679        -0.006298        -1.944587
 H         3.322868         1.350393         2.017685
