19
Iteration:  1989charge 0 multiplicity 1
 C         0.162907        -0.490617        -0.711648
 C         1.531523        -0.047975        -0.068104
 C         2.254724        -1.285104         0.536575
 C         3.523271        -0.678794         0.948461
 O         4.272986        -0.313898        -0.256797
 C         3.643853         1.030229        -0.250133
 C         2.331186         0.831428        -1.035245
 C         3.082089         0.832879         1.154744
 O         1.666423         0.801311         1.066278
 H        -0.276441        -1.061256         0.034032
 H        -0.389300         0.332334        -1.128697
 H         0.417544        -1.023097        -1.617869
 H         1.598080        -1.681505         1.251052
 H         2.594660        -2.107226        -0.270692
 H         4.206560        -1.240461         1.572314
 H         4.164189         1.953607        -0.402140
 H         1.718561         1.799820        -1.182201
 H         2.505467         0.365782        -1.986043
 H         3.388161         1.334329         2.046395
