19
Iteration:   901charge 0 multiplicity 1
 C        -0.034988        -0.167186        -0.331136
 C         1.490227        -0.186194        -0.238965
 C         2.346248        -1.346545         0.238814
 C         3.562663        -0.676633         0.925784
 O         4.511975        -0.065982        -0.010406
 C         3.591208         1.047170        -0.240810
 C         2.455037         0.536968        -1.209719
 C         2.972995         0.721800         1.135217
 O         1.539549         0.727657         0.980084
 H        -0.471349        -0.514414         0.619316
 H        -0.289046         0.841292        -0.321353
 H        -0.429455        -0.838247        -1.050785
 H         1.931284        -1.923775         1.148470
 H         2.602633        -1.995925        -0.548486
 H         4.056184        -1.276362         1.821245
 H         4.027941         2.075458        -0.428277
 H         2.089724         1.430397        -1.755194
 H         2.867314         0.057752        -2.153927
 H         3.504303         1.179968         1.963081
