19
Iteration:   848
 C         0.133234        -0.479623        -0.671967
 C         1.490538        -0.032085        -0.103121
 C         2.238253        -1.275725         0.376441
 C         3.552872        -0.609871         0.957485
 O         4.370506        -0.304014        -0.222942
 C         3.648900         0.982877        -0.306611
 C         2.278701         0.789471        -1.041335
 C         3.044663         0.853307         1.224752
 O         1.676990         0.773885         1.138831
 H        -0.456932        -0.932920         0.124467
 H        -0.438232         0.337155        -1.153231
 H         0.344989        -1.169892        -1.489790
 H         1.665956        -1.717699         1.235851
 H         2.560725        -1.962278        -0.320846
 H         4.171654        -1.282429         1.682271
 H         4.181838         1.832540        -0.537241
 H         1.937795         1.814302        -1.358126
 H         2.497893         0.209698        -1.977406
 H         3.442853         1.389700         2.077543
