19
Iteration:  4142charge 0 multiplicity 1
 C        -0.031884        -0.273422        -0.692661
 C         1.380494        -0.052843        -0.102982
 C         2.263529        -1.320018         0.325274
 C         3.537866        -0.729047         0.999358
 O         4.470980        -0.261246        -0.088362
 C         3.723744         0.971213        -0.225351
 C         2.381111         0.764657        -1.139408
 C         3.105569         0.790394         1.156848
 O         1.668270         0.762140         1.108194
 H        -0.635161        -0.911764        -0.115987
 H        -0.613142         0.628179        -0.951671
 H         0.166756        -0.863705        -1.595679
 H         1.590229        -1.845134         1.056504
 H         2.377343        -1.970701        -0.554415
 H         3.969096        -1.187170         1.911849
 H         4.268657         1.861980        -0.623432
 H         1.720336         1.582512        -1.149983
 H         2.550041         0.251219        -2.014298
 H         3.376463         1.402797         2.035873
