19
Iteration:  4624
 C         0.124859        -0.243820        -0.513676
 C         1.548200        -0.025687        -0.191011
 C         2.262062        -1.357259         0.322606
 C         3.496100        -0.764038         0.991800
 O         4.373141        -0.305125        -0.053681
 C         3.651634         1.008420        -0.219640
 C         2.457344         0.805654        -1.185228
 C         2.980242         0.695068         1.158554
 O         1.595905         0.791342         0.958704
 H        -0.310983        -1.207545        -0.181757
 H        -0.371522         0.345096         0.212248
 H        -0.276419         0.112287        -1.439221
 H         1.597605        -1.843025         1.021018
 H         2.556850        -2.121027        -0.370155
 H         4.083418        -1.043831         1.802095
 H         4.328031         1.856791        -0.156318
 H         2.025724         1.855851        -1.454455
 H         2.624772         0.302186        -2.134280
 H         3.308148         1.312863         2.017614
