19
Iteration:  1145charge 0 multiplicity 1
 C         0.082446        -0.409386        -0.597061
 C         1.481744        -0.141746        -0.068453
 C         2.294845        -1.335602         0.473563
 C         3.557897        -0.625728         0.955937
 O         4.361661        -0.247508        -0.219849
 C         3.619726         1.055873        -0.242788
 C         2.378617         0.810856        -1.119715
 C         3.063148         0.817487         1.168905
 O         1.646369         0.747072         1.002290
 H        -0.557324        -0.750507         0.183733
 H        -0.303226         0.521225        -0.998947
 H         0.087897        -1.183647        -1.352617
 H         1.620088        -1.932362         1.067732
 H         2.590643        -1.941923        -0.409566
 H         4.128489        -1.114980         1.842128
 H         4.367527         1.755868        -0.340653
 H         1.674119         1.660675        -1.240151
 H         2.679825         0.395771        -2.088676
 H         3.159461         1.311112         2.133169
