19
Iteration:   469
 C        -0.097293        -0.137172        -0.303183
 C         1.521582        -0.136533        -0.206851
 C         2.348484        -1.411296         0.237825
 C         3.614595        -0.685475         0.968221
 O         4.517582        -0.121738        -0.015245
 C         3.589286         1.034417        -0.249064
 C         2.490137         0.625087        -1.198342
 C         3.003881         0.724487         1.098698
 O         1.495691         0.712189         0.929884
 H        -0.434490        -0.575182         0.616884
 H        -0.285279         0.896414        -0.280832
 H        -0.548727        -0.709849        -1.083498
 H         1.761384        -1.939594         0.941566
 H         2.685585        -2.052026        -0.539516
 H         4.120335        -1.159225         1.745699
 H         4.088153         2.063092        -0.463721
 H         2.065192         1.564573        -1.767805
 H         2.886286        -0.164039        -1.876972
 H         3.118205         1.239990         2.064221
