19
Iteration:  3380charge 0 multiplicity 1
 C        -0.049237        -0.135081        -0.360228
 C         1.465977        -0.038801        -0.189984
 C         2.320767        -1.290792         0.211823
 C         3.484839        -0.686278         0.862998
 O         4.531542        -0.124864         0.045023
 C         3.596909         0.961521        -0.229651
 C         2.559012         0.490447        -1.233614
 C         2.939339         0.771437         1.203143
 O         1.589925         0.735593         0.989163
 H        -0.663269        -0.286959         0.588725
 H        -0.334490         0.730419        -0.935262
 H        -0.072361        -1.120142        -0.943758
 H         1.892610        -2.090593         0.820749
 H         2.434957        -1.990288        -0.627021
 H         3.972049        -1.257560         1.652253
 H         4.187208         1.843568        -0.552184
 H         2.103961         1.382457        -1.869041
 H         2.846444        -0.289199        -1.884366
 H         3.196076         1.218288         2.195166
