19
Iteration:  2152charge 0 multiplicity 1
 C         0.245026        -0.545133        -0.695462
 C         1.448456        -0.038815        -0.044819
 C         2.181919        -1.333701         0.467838
 C         3.443662        -0.709319         0.926176
 O         4.310386        -0.255613        -0.220901
 C         3.659023         1.034524        -0.327186
 C         2.350741         0.835960        -1.095576
 C         3.087844         0.781659         1.193363
 O         1.727824         0.872513         1.182308
 H        -0.528292        -1.101710        -0.187702
 H        -0.373776         0.207164        -1.206296
 H         0.526304        -1.071924        -1.608582
 H         1.737612        -1.614740         1.341894
 H         2.187578        -2.265207        -0.251268
 H         4.030759        -1.196782         1.715453
 H         4.295091         1.942101        -0.624712
 H         1.871337         1.756925        -1.333275
 H         2.496963         0.325461        -1.982656
 H         3.460711         1.624102         1.832917
