19
Iteration:  3836charge 0 multiplicity 1
 C        -0.018108        -0.184976        -0.459269
 C         1.502373        -0.066452        -0.227009
 C         2.240335        -1.348983         0.345214
 C         3.521756        -0.731819         0.999614
 O         4.453293        -0.246378        -0.013084
 C         3.649411         1.040291        -0.241932
 C         2.517582         0.689363        -1.298401
 C         3.014219         0.719907         1.201157
 O         1.598949         0.770923         0.972047
 H        -0.385867        -0.916321         0.320669
 H        -0.544299         0.785109        -0.289378
 H        -0.205969        -0.623014        -1.500199
 H         1.620341        -1.835584         1.092407
 H         2.572115        -2.024264        -0.447458
 H         3.834094        -1.275789         1.900335
 H         4.249452         1.941225        -0.272273
 H         1.964367         1.501532        -1.724833
 H         2.912265        -0.021480        -2.073103
 H         3.335212         1.441806         1.979070
