19
Iteration:  2143
 C         0.135841        -0.549122        -0.759976
 C         1.490812        -0.018480        -0.073520
 C         2.184415        -1.302274         0.467959
 C         3.535015        -0.682732         0.857703
 O         4.277777        -0.258178        -0.194839
 C         3.619917         0.987403        -0.294306
 C         2.380270         0.810562        -1.064978
 C         3.081610         0.814362         1.198241
 O         1.722775         0.897785         1.199837
 H        -0.361004        -1.259685        -0.057979
 H        -0.428049         0.221249        -1.225996
 H         0.570458        -1.235298        -1.466279
 H         1.614849        -1.680027         1.313823
 H         2.314315        -2.185337        -0.230822
 H         4.126906        -1.139718         1.683530
 H         4.278246         1.750678        -0.661602
 H         1.890105         1.725517        -1.274876
 H         2.507424         0.273487        -2.050437
 H         3.655229         1.362450         2.085170
