19
Iteration:  2972
 C        -0.022989        -0.179217        -0.453678
 C         1.526889        -0.096822        -0.241867
 C         2.255498        -1.391795         0.346286
 C         3.553014        -0.687938         0.932327
 O         4.517506        -0.253532         0.031888
 C         3.661577         0.965858        -0.299112
 C         2.461148         0.673431        -1.141294
 C         2.986950         0.856109         1.126109
 O         1.555588         0.755122         0.949014
 H        -0.267572        -0.743543         0.425823
 H        -0.397804         0.874249        -0.268614
 H        -0.316206        -0.607299        -1.463775
 H         1.642112        -1.904107         1.116715
 H         2.449046        -2.202076        -0.339462
 H         3.851001        -1.217603         1.853412
 H         4.263675         1.762926        -0.604145
 H         1.896683         1.606057        -1.306948
 H         2.658391         0.148142        -2.178906
 H         3.306687         1.355207         2.005888
