19
Iteration:  1421
 C         0.127972        -0.436072        -0.702299
 C         1.530028        -0.142935        -0.182763
 C         2.273068        -1.276091         0.490572
 C         3.578855        -0.630490         0.954325
 O         4.257072        -0.264288        -0.267421
 C         3.614222         1.033914        -0.262704
 C         2.368923         0.816313        -1.107603
 C         3.082065         0.787504         1.213017
 O         1.644384         0.796148         1.169998
 H        -0.365503        -1.063782         0.069357
 H        -0.449118         0.376806        -1.119075
 H         0.439153        -1.141368        -1.495036
 H         1.777820        -1.559777         1.389923
 H         2.359335        -2.293950        -0.123071
 H         4.173184        -1.175915         1.844679
 H         4.349954         1.745993        -0.484030
 H         1.847029         1.786302        -1.133632
 H         2.487464         0.230252        -2.046769
 H         3.367452         1.537740         1.986858
