19
Iteration:    28
 C        -0.013279        -0.206754        -0.267614
 C         1.464903        -0.121830        -0.296758
 C         2.348803        -1.419226         0.247887
 C         3.498065        -0.653133         0.929951
 O         4.506573        -0.114394         0.024581
 C         3.647057         0.982821        -0.232115
 C         2.470891         0.643607        -1.190835
 C         2.923577         0.742048         1.127411
 O         1.610303         0.766805         0.884273
 H        -0.240448        -0.719818         0.689830
 H        -0.551538         0.740960        -0.074829
 H        -0.521641        -0.854794        -1.001241
 H         1.739833        -1.876032         1.058047
 H         2.741545        -2.050817        -0.558577
 H         3.982888        -1.317801         1.743052
 H         4.298013         2.034675        -0.397856
 H         1.984681         1.542101        -1.632489
 H         2.685245        -0.042880        -2.056940
 H         3.250426         1.272962         2.028931
