19
Iteration:  1424
 C         0.124299        -0.419123        -0.688608
 C         1.490229        -0.120614        -0.146826
 C         2.291044        -1.282211         0.443103
 C         3.590876        -0.650360         0.979066
 O         4.280754        -0.260753        -0.270429
 C         3.594146         1.042349        -0.234556
 C         2.385906         0.778028        -1.108760
 C         3.065748         0.799024         1.211124
 O         1.653949         0.797274         1.139482
 H        -0.358030        -1.094735        -0.020856
 H        -0.507280         0.326594        -1.164216
 H         0.371677        -1.195007        -1.444617
 H         1.861132        -1.541425         1.463831
 H         2.308662        -2.156470        -0.070354
 H         4.133161        -1.138097         1.750121
 H         4.401763         1.780036        -0.551950
 H         1.869970         1.813769        -1.131105
 H         2.420340         0.210659        -2.047314
 H         3.349508         1.423156         2.018216
