19
Iteration:  1467charge 0 multiplicity 1
 C        -0.080411        -0.251753        -0.383073
 C         1.514789        -0.077237        -0.172937
 C         2.398636        -1.376643         0.229431
 C         3.517862        -0.632061         0.917296
 O         4.499501        -0.115391         0.023093
 C         3.596506         0.962679        -0.310869
 C         2.398348         0.583425        -1.193310
 C         3.000308         0.828039         1.131567
 O         1.618912         0.700622         1.025646
 H        -0.517956        -0.627730         0.518726
 H        -0.424134         0.756488        -0.614726
 H        -0.212174        -0.960638        -1.204213
 H         1.722588        -1.984430         0.911216
 H         2.694079        -1.999684        -0.571429
 H         4.007890        -1.159878         1.748501
 H         4.076652         1.961558        -0.594398
 H         1.890376         1.608783        -1.397279
 H         2.821674        -0.015284        -2.043630
 H         3.213864         1.394539         2.014186
