19
Iteration:  2033
 C         0.118447        -0.340566        -0.549710
 C         1.503871        -0.078039        -0.110362
 C         2.238616        -1.294405         0.392831
 C         3.541391        -0.647787         0.983065
 O         4.416517        -0.249904        -0.142807
 C         3.565556         1.070601        -0.252288
 C         2.345698         0.712511        -1.117986
 C         3.084513         0.778348         1.130888
 O         1.633593         0.720262         1.015991
 H        -0.340771        -0.923714         0.209295
 H        -0.459954         0.493620        -0.876781
 H         0.217139        -0.899532        -1.457468
 H         1.757472        -1.799128         1.178817
 H         2.496589        -2.068185        -0.440340
 H         3.973737        -1.179789         1.825565
 H         4.275270         1.818894        -0.494822
 H         1.755053         1.636640        -1.291577
 H         2.640209         0.277732        -2.069127
 H         3.422034         1.483822         1.891701
