19
Iteration:  4044charge 0 multiplicity 1
 C         0.141905        -0.365158        -0.727669
 C         1.526821        -0.013742        -0.100320
 C         2.273634        -1.271173         0.380339
 C         3.500026        -0.698962         1.012477
 O         4.299716        -0.359043        -0.125206
 C         3.584559         0.989052        -0.249712
 C         2.364486         0.802480        -1.073031
 C         3.061013         0.765369         1.162757
 O         1.702936         0.842524         1.091524
 H        -0.407422        -0.900554        -0.042276
 H        -0.520907         0.386391        -1.104243
 H         0.396442        -1.015513        -1.592821
 H         1.567572        -1.940145         0.948866
 H         2.639401        -1.863326        -0.474387
 H         3.894008        -1.298801         1.853353
 H         4.282400         1.793077        -0.574959
 H         1.762396         1.806610        -1.082033
 H         2.628321         0.377583        -2.085977
 H         3.600244         1.200897         2.004560
