19
Iteration:  1260
 C         0.071187        -0.511602        -0.747509
 C         1.537058        -0.104304        -0.064903
 C         2.240445        -1.306521         0.478001
 C         3.629711        -0.669400         0.952587
 O         4.284462        -0.231362        -0.248338
 C         3.635245         1.020019        -0.254505
 C         2.361865         0.817146        -1.067364
 C         3.076120         0.762442         1.198846
 O         1.651598         0.892120         1.128379
 H        -0.470562        -1.311369        -0.165450
 H        -0.489527         0.440502        -1.034724
 H         0.271797        -1.204812        -1.650961
 H         1.650002        -1.626334         1.440084
 H         2.562041        -2.144278        -0.183930
 H         4.152122        -1.390682         1.517620
 H         4.358233         1.939212        -0.572983
 H         1.685619         1.695263        -1.261440
 H         2.588430         0.402626        -2.076931
 H         3.409423         1.316352         2.132143
