19
Iteration:  1469charge 0 multiplicity 1
 C        -0.095460        -0.234072        -0.357016
 C         1.510798        -0.083378        -0.187035
 C         2.409278        -1.364890         0.235587
 C         3.520027        -0.630683         0.915037
 O         4.502958        -0.113027         0.034706
 C         3.586781         0.954588        -0.310689
 C         2.398218         0.599402        -1.193766
 C         3.016523         0.816188         1.133586
 O         1.612766         0.674710         1.001213
 H        -0.544634        -0.662460         0.525949
 H        -0.403614         0.789565        -0.630267
 H        -0.239431        -0.948316        -1.176559
 H         1.736008        -2.027365         0.890524
 H         2.745467        -1.927848        -0.531616
 H         3.980668        -1.099957         1.702512
 H         4.138082         1.951900        -0.597949
 H         1.930775         1.635087        -1.453496
 H         2.822600        -0.082461        -1.973472
 H         3.148139         1.472645         2.005119
