19
Iteration:  3885charge 0 multiplicity 1
 C         0.147960        -0.376218        -0.783869
 C         1.455844         0.035383        -0.098631
 C         2.247697        -1.340761         0.471188
 C         3.487859        -0.710888         0.982048
 O         4.304311        -0.317277        -0.146564
 C         3.611048         0.937751        -0.256593
 C         2.326192         0.825435        -1.119313
 C         3.077805         0.792082         1.176493
 O         1.739964         0.814853         1.149851
 H        -0.788070        -0.680930        -0.251791
 H         0.150706         0.509183        -1.485038
 H         0.546450        -1.213686        -1.367432
 H         1.586491        -1.676616         1.306973
 H         2.451841        -2.005822        -0.388187
 H         3.991737        -1.248110         1.824237
 H         4.251701         1.762116        -0.647566
 H         1.880045         1.828450        -1.354205
 H         2.741970         0.254656        -1.962827
 H         3.537124         1.330441         1.988496
