19
Iteration:  3661
 C        -0.038794        -0.079380        -0.369380
 C         1.506010        -0.083340        -0.237007
 C         2.241791        -1.468159         0.282520
 C         3.489263        -0.683525         0.916313
 O         4.524912        -0.133446         0.043531
 C         3.608512         1.050203        -0.208678
 C         2.541885         0.531779        -1.209929
 C         2.953989         0.734152         1.120162
 O         1.600723         0.765625         0.956237
 H        -0.393706        -0.890141         0.319571
 H        -0.483335         0.853383        -0.157653
 H        -0.206905        -0.456996        -1.397885
 H         1.635969        -2.085203         0.903826
 H         2.594653        -2.135725        -0.512748
 H         3.941758        -1.121643         1.841240
 H         4.097939         1.964814        -0.484195
 H         2.142055         1.382200        -1.763397
 H         2.890893        -0.062806        -2.099908
 H         3.455853         1.194356         1.991052
