19
Iteration:  2559
 C         0.129368        -0.291062        -0.594635
 C         1.517135        -0.046016        -0.124312
 C         2.299569        -1.286771         0.406100
 C         3.539433        -0.703656         0.985212
 O         4.333394        -0.261355        -0.146789
 C         3.643384         0.995846        -0.277341
 C         2.320268         0.719808        -1.146968
 C         3.087241         0.710768         1.199182
 O         1.610589         0.809376         1.022394
 H        -0.479331        -0.650896         0.239056
 H        -0.280535         0.664347        -0.861602
 H         0.171428        -1.117165        -1.335488
 H         1.605650        -1.735432         1.165064
 H         2.734574        -2.026592        -0.192500
 H         4.070665        -1.230200         1.873806
 H         4.309458         1.816597        -0.528522
 H         1.612668         1.525259        -1.418763
 H         2.575201         0.092146        -2.116549
 H         3.453549         1.481952         1.960295
