19
Iteration:  1999
 C         0.163683        -0.492787        -0.720002
 C         1.546213        -0.123607        -0.099040
 C         2.268301        -1.300569         0.511338
 C         3.570414        -0.616366         0.969188
 O         4.245898        -0.367436        -0.320923
 C         3.603624         1.037831        -0.225075
 C         2.402272         0.858015        -1.045259
 C         3.103908         0.817415         1.200866
 O         1.597211         0.855135         1.101548
 H        -0.486859        -1.089810        -0.162345
 H        -0.486881         0.331000        -0.952519
 H         0.417239        -1.174789        -1.523928
 H         1.705438        -1.685989         1.301873
 H         2.465224        -2.165770        -0.286942
 H         4.112094        -1.092476         1.783059
 H         4.370047         1.820122        -0.501796
 H         1.702414         1.736895        -0.975779
 H         2.638250         0.645464        -2.048338
 H         3.483593         1.487491         1.933978
