19
Iteration:  4188charge 0 multiplicity 1
 C         0.112142        -0.354667        -0.627611
 C         1.535231        -0.055778        -0.158535
 C         2.220055        -1.338499         0.505873
 C         3.482226        -0.672069         0.954702
 O         4.222169        -0.344487        -0.234021
 C         3.667088         1.033635        -0.192454
 C         2.525791         0.869819        -1.150028
 C         3.090262         0.761274         1.238128
 O         1.637797         0.776271         1.024518
 H        -0.285079        -1.269614        -0.259158
 H        -0.632772         0.425536        -0.370272
 H         0.098122        -0.497434        -1.664576
 H         1.495285        -1.860084         1.172232
 H         2.573910        -1.955099        -0.347627
 H         4.183177        -1.322150         1.520665
 H         4.407920         1.917161        -0.156925
 H         1.893546         1.765081        -1.342094
 H         2.925497         0.381221        -2.019469
 H         3.298668         1.355031         2.139254
