19
Iteration:  2169charge 0 multiplicity 1
 C         0.177708        -0.383753        -0.646561
 C         1.537121        -0.049680        -0.082647
 C         2.243329        -1.263386         0.494485
 C         3.571587        -0.683774         0.947956
 O         4.375991        -0.294804        -0.238783
 C         3.603970         0.969869        -0.269318
 C         2.342706         0.775514        -1.065411
 C         3.067563         0.819386         1.161550
 O         1.567846         0.794420         1.069289
 H        -0.308456        -1.051477         0.078977
 H        -0.375806         0.511259        -1.035087
 H         0.298093        -1.048319        -1.560523
 H         1.498973        -1.797183         1.239342
 H         2.497517        -2.055779        -0.166885
 H         4.183892        -1.141815         1.771337
 H         4.211558         1.835342        -0.565496
 H         1.681447         1.704472        -1.257305
 H         2.499076         0.330262        -2.133432
 H         3.498947         1.285628         2.023722
