19
Iteration:  3558
 C        -0.033620        -0.271768        -0.583541
 C         1.466295        -0.146951        -0.168280
 C         2.202524        -1.383689         0.320105
 C         3.540247        -0.688815         0.915518
 O         4.490179        -0.217778        -0.085182
 C         3.674014         1.018869        -0.231597
 C         2.456343         0.664034        -1.145416
 C         3.006750         0.805207         1.257056
 O         1.637718         0.848584         1.035370
 H        -0.567392        -0.344839         0.364083
 H        -0.413921         0.603898        -1.231295
 H        -0.066513        -1.233411        -1.138567
 H         1.628090        -1.772972         1.169094
 H         2.454603        -2.155467        -0.409389
 H         4.030649        -1.381396         1.602469
 H         4.340720         1.912024        -0.375390
 H         1.835649         1.506058        -1.346749
 H         2.865599         0.197941        -2.129670
 H         3.413855         1.389902         2.090065
