19
Iteration:  4023charge 0 multiplicity 1
 C         0.178904        -0.387726        -0.716625
 C         1.548331        -0.088819        -0.153466
 C         2.186681        -1.371077         0.485135
 C         3.489714        -0.684717         0.965724
 O         4.285112        -0.331711        -0.264533
 C         3.737710         0.942176        -0.247553
 C         2.424051         0.869557        -1.071134
 C         3.047207         0.863775         1.243242
 O         1.574591         0.828736         1.089617
 H        -0.263143        -1.127586        -0.162558
 H        -0.464547         0.510488        -0.623351
 H         0.226856        -0.624145        -1.786921
 H         1.690947        -1.668667         1.413291
 H         2.259625        -2.201183        -0.214932
 H         4.200998        -1.289126         1.565301
 H         4.461572         1.795763        -0.396856
 H         1.908613         1.914555        -1.174510
 H         2.871220         0.386241        -1.887226
 H         3.310983         1.405840         2.162352
