19
Iteration:   681charge 0 multiplicity 1
 C         0.146651        -0.422960        -0.767170
 C         1.503907        -0.030224        -0.026678
 C         2.287643        -1.261363         0.495394
 C         3.559342        -0.614167         0.945387
 O         4.361805        -0.307466        -0.214195
 C         3.616326         0.970396        -0.340353
 C         2.297453         0.807672        -1.037077
 C         3.063050         0.774728         1.143674
 O         1.660931         0.771526         1.191701
 H        -0.584122        -0.891916        -0.024561
 H        -0.376663         0.440582        -1.162193
 H         0.323642        -1.082459        -1.628692
 H         1.693971        -1.658739         1.288525
 H         2.520393        -2.089454        -0.322879
 H         4.154911        -1.238863         1.739025
 H         4.094698         1.847211        -0.633623
 H         1.538680         1.579472        -1.439567
 H         2.532436         0.242370        -2.043752
 H         3.364404         1.513070         1.800874
