19
Iteration:  3627charge 0 multiplicity 1
 C        -0.009091        -0.272737        -0.631540
 C         1.457590        -0.009795        -0.153278
 C         2.260532        -1.336250         0.402632
 C         3.562896        -0.674501         0.989435
 O         4.458444        -0.289459        -0.081768
 C         3.676092         0.968483        -0.230435
 C         2.363488         0.707266        -1.181059
 C         3.043963         0.774445         1.202041
 O         1.645379         0.804356         1.033407
 H        -0.488551        -1.210567        -0.178079
 H        -0.761159         0.519417        -0.680992
 H         0.158088        -0.543018        -1.678699
 H         1.614383        -1.784826         1.130485
 H         2.654185        -1.985668        -0.395241
 H         4.084465        -1.233163         1.830093
 H         4.185692         1.868545        -0.535914
 H         1.900910         1.664014        -1.337182
 H         2.682701         0.021293        -2.076024
 H         3.361330         1.338711         2.088601
