19
Iteration:  2268
 C         0.168780        -0.367702        -0.521648
 C         1.566917        -0.089722        -0.157650
 C         2.293892        -1.334609         0.423435
 C         3.490581        -0.675620         0.952244
 O         4.333292        -0.255795        -0.146887
 C         3.657979         0.992447        -0.270731
 C         2.354600         0.718885        -1.127733
 C         3.020363         0.871285         1.148101
 O         1.609121         0.772359         1.061025
 H        -0.452256        -0.730900         0.277944
 H        -0.229780         0.637695        -0.887148
 H         0.067963        -0.944823        -1.494376
 H         1.591555        -1.857024         1.160299
 H         2.522758        -2.114737        -0.311452
 H         3.984258        -1.302141         1.701556
 H         4.324904         1.775256        -0.724651
 H         1.854361         1.780872        -1.302391
 H         2.586718         0.380691        -2.150420
 H         3.348600         1.503243         1.918322
