19
Iteration:  2147
 C         0.191867        -0.554550        -0.725952
 C         1.457899        -0.022282        -0.054326
 C         2.184569        -1.325213         0.448347
 C         3.488880        -0.703889         0.869258
 O         4.278571        -0.249788        -0.197582
 C         3.645415         1.006531        -0.316045
 C         2.383612         0.825210        -1.068705
 C         3.069473         0.800027         1.215523
 O         1.753355         0.889586         1.196814
 H        -0.444942        -1.249682        -0.119123
 H        -0.386979         0.219411        -1.292236
 H         0.520607        -1.186112        -1.602657
 H         1.630028        -1.720530         1.424923
 H         2.229085        -2.189066        -0.134574
 H         4.065333        -1.071916         1.728715
 H         4.244732         1.847063        -0.667837
 H         1.857461         1.803946        -1.361198
 H         2.472428         0.282833        -2.098362
 H         3.556175         1.498118         1.887776
