19
Iteration:   221
 C         0.020684        -0.344130        -0.624272
 C         1.490102        -0.099248        -0.140174
 C         2.266749        -1.266027         0.396690
 C         3.567306        -0.652599         0.933738
 O         4.401715        -0.227097        -0.200968
 C         3.616671         0.981319        -0.241043
 C         2.416557         0.703270        -1.072453
 C         3.025005         0.767485         1.209883
 O         1.639873         0.764160         1.090196
 H        -0.631534        -0.812251         0.163897
 H        -0.380319         0.653678        -0.909586
 H         0.123769        -0.960095        -1.539388
 H         1.744548        -1.794557         1.215928
 H         2.625746        -2.055082        -0.399525
 H         4.198122        -1.081625         1.737251
 H         4.079822         1.855611        -0.503564
 H         1.878266         1.630388        -1.337974
 H         2.685591         0.222440        -1.990738
 H         3.488686         1.440856         1.951941
