19
Iteration:  3755
 C         0.219472        -0.323636        -0.669166
 C         1.521848        -0.024834        -0.069353
 C         2.206068        -1.323221         0.529751
 C         3.545005        -0.711206         0.926144
 O         4.301605        -0.329477        -0.242696
 C         3.664718         0.966704        -0.232161
 C         2.442977         0.817724        -1.095859
 C         2.995046         0.803997         1.153624
 O         1.575251         0.808718         1.064701
 H        -0.413638        -0.811734         0.123735
 H        -0.112296         0.634058        -1.165472
 H         0.428783        -1.017228        -1.442297
 H         1.538787        -1.911459         1.250675
 H         2.393672        -2.190191        -0.189717
 H         4.127630        -1.191074         1.742400
 H         4.414726         1.794298        -0.303998
 H         1.943550         1.775152        -1.529726
 H         2.613347         0.300533        -2.106197
 H         3.204392         1.259034         2.115338
