19
Iteration:   480
 C        -0.012274        -0.199897        -0.300269
 C         1.466206        -0.113236        -0.219855
 C         2.368704        -1.352988         0.224221
 C         3.486769        -0.700073         0.914690
 O         4.540191        -0.148020         0.028544
 C         3.617059         1.084085        -0.262532
 C         2.459449         0.564014        -1.251174
 C         2.935667         0.776344         1.114546
 O         1.599841         0.706711         1.016977
 H        -0.431244        -0.609919         0.593837
 H        -0.435835         0.769415        -0.381747
 H        -0.382354        -0.666836        -1.190373
 H         1.725275        -1.831521         0.914921
 H         2.608934        -2.075534        -0.515992
 H         3.855509        -1.313189         1.669994
 H         4.154881         2.091033        -0.459744
 H         1.877555         1.464775        -1.728245
 H         2.880461        -0.014174        -2.097573
 H         3.367971         1.321194         1.994800
