19
Iteration:  4326
 C         0.196836        -0.309185        -0.744736
 C         1.436620         0.052801        -0.069768
 C         2.257997        -1.271398         0.370744
 C         3.526930        -0.736536         0.903279
 O         4.383930        -0.354384        -0.197620
 C         3.669565         0.927303        -0.260694
 C         2.378596         0.731320        -1.038585
 C         3.069278         0.782630         1.211672
 O         1.556089         0.832246         1.200565
 H        -0.517600        -0.669293        -0.036410
 H        -0.338257         0.600127        -1.163362
 H         0.601962        -1.126174        -1.427230
 H         1.628999        -1.834517         1.049865
 H         2.436276        -1.737942        -0.580023
 H         3.990746        -1.357024         1.706624
 H         4.148482         1.811877        -0.582318
 H         1.912918         1.736747        -1.357536
 H         2.521811         0.140916        -1.974866
 H         3.457757         1.439272         2.026335
