19
Iteration:  3920
 C         0.079397        -0.293196        -0.503261
 C         1.521862        -0.101725        -0.163403
 C         2.204420        -1.336605         0.390286
 C         3.460860        -0.731179         0.903762
 O         4.451334        -0.266276        -0.147767
 C         3.683972         0.992609        -0.180357
 C         2.498605         0.779030        -1.110173
 C         2.976556         0.773858         1.171050
 O         1.595132         0.807618         0.977979
 H        -0.680664        -0.339104         0.311764
 H        -0.278977         0.522023        -1.095390
 H        -0.095413        -1.090697        -1.173236
 H         1.660346        -1.899526         1.200597
 H         2.394913        -2.155036        -0.350419
 H         3.943627        -1.120745         1.809670
 H         4.317515         1.821539        -0.451791
 H         2.040023         1.697793        -1.434869
 H         2.922186         0.358012        -2.117174
 H         3.242428         1.323921         2.083274
