19
Iteration:  3440
 C         0.176984        -0.358627        -0.711411
 C         1.552854        -0.081443        -0.090829
 C         2.258409        -1.350009         0.465410
 C         3.529420        -0.633500         0.988763
 O         4.340394        -0.391906        -0.178174
 C         3.678285         0.953256        -0.306648
 C         2.389561         0.828353        -1.092914
 C         2.994769         0.836052         1.151994
 O         1.559224         0.858151         1.161861
 H        -0.402996        -1.031756        -0.092408
 H        -0.434707         0.535869        -0.958233
 H         0.386802        -0.842724        -1.629524
 H         1.531893        -1.795375         1.114669
 H         2.553201        -1.874850        -0.432336
 H         4.191027        -1.170671         1.703329
 H         4.319273         1.685073        -0.793778
 H         1.912746         1.760490        -1.211113
 H         2.567271         0.303841        -2.105763
 H         3.330105         1.414162         1.985214
