19
Iteration:  1581
 C         0.161406        -0.387005        -0.591019
 C         1.569627        -0.122089        -0.148677
 C         2.329524        -1.383621         0.462388
 C         3.509923        -0.684823         0.973501
 O         4.304884        -0.231479        -0.216011
 C         3.571679         1.001504        -0.301820
 C         2.369559         0.805068        -1.106842
 C         3.031197         0.811772         1.162752
 O         1.636868         0.808916         1.083736
 H        -0.460040        -0.906490         0.220546
 H        -0.416523         0.506076        -0.845731
 H         0.145127        -1.121584        -1.411936
 H         1.667731        -1.753048         1.270978
 H         2.701056        -2.157029        -0.315760
 H         4.102494        -1.135553         1.783569
 H         4.193970         1.913521        -0.457657
 H         1.734858         1.776926        -1.287452
 H         2.738072         0.498660        -2.136720
 H         3.324332         1.424046         2.053743
