19
Iteration:  4966charge 0 multiplicity 1
 C         0.071066        -0.260605        -0.532089
 C         1.551351        -0.091433        -0.174453
 C         2.212621        -1.349424         0.444478
 C         3.458181        -0.662132         1.013982
 O         4.395683        -0.359194        -0.064338
 C         3.697191         0.992588        -0.290445
 C         2.501414         0.637221        -1.121620
 C         2.974036         0.874873         1.125870
 O         1.602750         0.863441         0.936038
 H        -0.335047        -0.356844         0.447685
 H        -0.196403         0.736350        -1.050090
 H        -0.154002        -0.960889        -1.346016
 H         1.521248        -1.851862         1.152982
 H         2.430440        -2.041782        -0.391179
 H         3.943370        -1.036192         1.928092
 H         4.562162         1.629040        -0.633289
 H         1.926788         1.417959        -1.477366
 H         2.892593         0.099178        -2.021568
 H         3.158411         1.377388         2.017267
