19
Iteration:  3861charge 0 multiplicity 1
 C         0.134748        -0.275753        -0.694524
 C         1.499515        -0.063079        -0.153901
 C         2.229414        -1.337626         0.431941
 C         3.547432        -0.682973         0.951099
 O         4.401166        -0.320932        -0.146638
 C         3.715086         0.905087        -0.254859
 C         2.372759         0.723831        -1.046801
 C         3.038516         0.821480         1.177640
 O         1.555817         0.826136         1.056589
 H        -0.408781        -0.768304         0.126905
 H        -0.278726         0.796181        -0.952171
 H         0.094590        -0.973378        -1.605374
 H         1.678376        -1.769356         1.257655
 H         2.442933        -1.962062        -0.438832
 H         3.908425        -1.053253         1.907231
 H         4.388938         1.750946        -0.597473
 H         1.821488         1.718146        -0.983188
 H         2.499881         0.365590        -2.001661
 H         3.407041         1.489870         1.963160
