19
Iteration:  2585charge 0 multiplicity 1
 C         0.114443        -0.499063        -0.735291
 C         1.441065         0.008274         0.002351
 C         2.156707        -1.315046         0.493520
 C         3.461437        -0.753367         0.830366
 O         4.374335        -0.323715        -0.275104
 C         3.725247         0.971724        -0.254143
 C         2.461320         0.785079        -1.075544
 C         3.099773         0.919787         1.171377
 O         1.603538         0.893176         1.198796
 H        -0.396302        -1.308933        -0.177074
 H        -0.612471         0.364055        -1.069042
 H         0.618432        -1.114510        -1.534391
 H         1.657447        -1.611288         1.404443
 H         2.312493        -2.208995        -0.219560
 H         3.996355        -1.228927         1.639669
 H         4.391616         1.887595        -0.554913
 H         1.843977         1.691553        -1.283406
 H         2.744921         0.287039        -1.915325
 H         3.589353         1.501980         1.905089
