19
Iteration:  4528
 C        -0.009792        -0.129771        -0.363467
 C         1.554033        -0.036038        -0.235578
 C         2.310933        -1.414049         0.212499
 C         3.458822        -0.721343         0.967457
 O         4.499192        -0.217072        -0.048900
 C         3.645808         0.970975        -0.145376
 C         2.528556         0.718565        -1.229289
 C         2.935772         0.738923         1.169502
 O         1.571695         0.735038         0.989151
 H        -0.520180         0.062949         0.624271
 H        -0.496797         0.461837        -1.126205
 H        -0.345727        -1.087551        -0.764517
 H         1.701149        -2.104088         0.823146
 H         2.608280        -2.013572        -0.647106
 H         3.906893        -1.357578         1.677005
 H         4.254265         1.874842        -0.289868
 H         2.065549         1.632777        -1.624976
 H         2.733880         0.070336        -2.081451
 H         3.189378         1.419358         2.020221
