19
Iteration:  4246charge 0 multiplicity 1
 C        -0.118813        -0.074733        -0.532245
 C         1.450842        -0.069492        -0.152261
 C         2.359811        -1.425140         0.147716
 C         3.488994        -0.711494         0.907497
 O         4.523515        -0.143855         0.051328
 C         3.665926         0.953194        -0.244674
 C         2.436845         0.592852        -1.169051
 C         3.052457         0.752889         1.181712
 O         1.596912         0.779529         1.124955
 H        -0.509134        -0.411856         0.466306
 H        -0.481670         0.796386        -0.937164
 H        -0.304201        -0.843108        -1.270825
 H         1.784632        -2.090159         0.746349
 H         2.613541        -2.040819        -0.708884
 H         3.925913        -1.364092         1.630241
 H         4.081082         1.904679        -0.476503
 H         1.751710         1.304735        -1.735999
 H         2.888927        -0.151070        -1.962959
 H         3.608984         1.287290         1.938089
