19
Iteration:  2403
 C        -0.029315        -0.292125        -0.504550
 C         1.472248        -0.110334        -0.166130
 C         2.261211        -1.291130         0.341416
 C         3.571491        -0.628100         0.933179
 O         4.509015        -0.206379        -0.096462
 C         3.649217         0.917952        -0.293435
 C         2.406892         0.659481        -1.188791
 C         2.989798         0.796702         1.223731
 O         1.625050         0.817763         1.082405
 H        -0.518570        -0.874979         0.344123
 H        -0.508667         0.637473        -0.815349
 H        -0.101441        -1.016378        -1.317733
 H         1.580578        -1.742979         1.034147
 H         2.522506        -2.018863        -0.498064
 H         4.010698        -1.321771         1.637810
 H         4.219730         1.808570        -0.501385
 H         2.006424         1.580909        -1.725214
 H         2.728095        -0.133167        -1.933938
 H         3.376965         1.449166         2.022231
