19
Iteration:  1537charge 0 multiplicity 1
 C         0.104125        -0.445543        -0.670095
 C         1.457511        -0.054997        -0.118916
 C         2.266760        -1.301861         0.445706
 C         3.590541        -0.633249         0.896144
 O         4.436049        -0.241400        -0.231417
 C         3.583787         0.980369        -0.238174
 C         2.385761         0.752421        -1.135655
 C         3.022082         0.813318         1.235686
 O         1.580064         0.815073         1.171029
 H        -0.448289        -1.140351         0.042799
 H        -0.471014         0.449276        -0.943142
 H         0.338092        -1.101131        -1.522056
 H         1.723536        -1.710572         1.282855
 H         2.615579        -2.114532        -0.253174
 H         4.066769        -1.190459         1.689049
 H         4.145821         1.826209        -0.659601
 H         1.880688         1.752597        -1.319323
 H         2.533783         0.129797        -2.048836
 H         3.742825         1.374470         1.887984
