19
Iteration:   130charge 0 multiplicity 1
 C         0.188540        -0.387985        -0.573045
 C         1.542324        -0.077369        -0.118177
 C         2.233824        -1.296779         0.447636
 C         3.548145        -0.674291         0.956299
 O         4.347121        -0.268793        -0.192032
 C         3.608006         1.013892        -0.233280
 C         2.334465         0.759324        -1.112955
 C         3.036088         0.794129         1.175001
 O         1.651676         0.787551         1.029051
 H        -0.527675        -0.916014         0.110890
 H        -0.310041         0.555451        -0.921428
 H         0.188762        -1.037792        -1.481131
 H         1.522680        -1.784328         1.235926
 H         2.492178        -1.967167        -0.394829
 H         4.019037        -1.248126         1.690111
 H         4.420370         1.807327        -0.519504
 H         1.751254         1.638829        -1.336580
 H         2.584857         0.352806        -2.097734
 H         3.298115         1.502144         1.988593
