19
Iteration:  1875charge 0 multiplicity 1
 C         0.110948        -0.474462        -0.667285
 C         1.495262        -0.087030        -0.084096
 C         2.283931        -1.320435         0.451637
 C         3.509002        -0.678344         0.964627
 O         4.401949        -0.207984        -0.234030
 C         3.624919         0.942173        -0.246403
 C         2.333681         0.757351        -1.081181
 C         3.067118         0.793430         1.154501
 O         1.614629         0.896279         1.103100
 H        -0.499686        -1.019298         0.087543
 H        -0.330099         0.464363        -1.005148
 H         0.238573        -0.966610        -1.633926
 H         1.584635        -1.708114         1.299396
 H         2.476506        -1.969667        -0.396283
 H         4.126318        -1.251883         1.668229
 H         4.291452         1.950216        -0.379943
 H         1.751288         1.602846        -1.369267
 H         2.760650         0.166596        -1.915779
 H         3.550450         1.305788         2.002706
