19
Iteration:   559
 C         0.224216        -0.370323        -0.626570
 C         1.528360        -0.099241        -0.078901
 C         2.246914        -1.328089         0.537535
 C         3.557061        -0.628108         0.902841
 O         4.288684        -0.293808        -0.272805
 C         3.590709         1.014782        -0.238365
 C         2.374155         0.801592        -1.145933
 C         3.033233         0.837998         1.187703
 O         1.603784         0.743713         1.068992
 H        -0.405118        -0.786705         0.130237
 H        -0.229306         0.567742        -1.026425
 H         0.306990        -1.156389        -1.370812
 H         1.761515        -1.566545         1.402250
 H         2.435477        -2.285635        -0.077109
 H         4.190069        -1.206332         1.584923
 H         4.301924         1.827578        -0.241729
 H         1.797198         1.748299        -1.502358
 H         2.772954         0.325590        -2.040135
 H         3.441841         1.364372         2.101365
