19
Iteration:  1732charge 0 multiplicity 1
 C         0.113170        -0.409746        -0.619935
 C         1.548695        -0.102168        -0.111736
 C         2.287054        -1.298577         0.412773
 C         3.535204        -0.637178         0.989827
 O         4.347469        -0.236768        -0.186140
 C         3.608079         1.003914        -0.269060
 C         2.362736         0.772515        -1.114160
 C         3.056133         0.830667         1.176183
 O         1.638738         0.736737         1.071071
 H        -0.512758        -0.899937         0.140363
 H        -0.396774         0.492052        -0.949252
 H         0.136212        -0.971923        -1.556584
 H         1.534990        -1.667854         1.252316
 H         2.523874        -2.064181        -0.283099
 H         4.103468        -1.233908         1.668661
 H         4.348483         1.888995        -0.567218
 H         1.730471         1.659619        -1.222834
 H         2.579372         0.193241        -2.031784
 H         3.357557         1.465613         1.987733
