19
Iteration:  3040
 C         0.045871        -0.389393        -0.739429
 C         1.478153         0.014115        -0.097528
 C         2.201467        -1.296809         0.503694
 C         3.528370        -0.734564         0.971755
 O         4.420132        -0.257165        -0.175947
 C         3.638495         0.973407        -0.230841
 C         2.397588         0.758923        -1.094561
 C         3.112620         0.704876         1.175735
 O         1.630968         0.882784         1.048771
 H        -0.537632        -0.636894         0.145764
 H        -0.514108         0.309473        -1.469029
 H         0.303011        -1.279728        -1.310425
 H         1.590465        -1.546779         1.371706
 H         2.269020        -2.184479        -0.198059
 H         4.314178        -1.285780         1.562774
 H         4.188581         1.874753        -0.534232
 H         2.094635         1.789951        -1.409954
 H         2.535521         0.141470        -1.972378
 H         3.424107         1.220867         2.147228
