19
Iteration:  1285charge 0 multiplicity 1
 C         0.180619        -0.396940        -0.622439
 C         1.513490        -0.077074        -0.090831
 C         2.204776        -1.338019         0.367035
 C         3.602996        -0.609270         0.905755
 O         4.387116        -0.255646        -0.205294
 C         3.612614         0.988831        -0.276088
 C         2.319763         0.737295        -1.090331
 C         3.053221         0.823069         1.164752
 O         1.594719         0.814286         1.175033
 H        -0.361027        -1.097338         0.032780
 H        -0.371450         0.426971        -1.194098
 H         0.471512        -1.222606        -1.356792
 H         1.560670        -1.673753         1.284369
 H         2.525588        -2.126784        -0.228173
 H         4.067385        -1.329260         1.648677
 H         4.214754         1.965294        -0.506996
 H         1.844456         1.703996        -1.276908
 H         2.422273         0.298530        -2.060152
 H         3.381229         1.361146         2.012985
