19
Iteration:  4818
 C         0.004522        -0.179714        -0.545811
 C         1.501913        -0.056720        -0.158637
 C         2.252924        -1.356247         0.359542
 C         3.483580        -0.685733         1.005816
 O         4.463840        -0.268938        -0.043139
 C         3.670792         0.899888        -0.242898
 C         2.514328         0.654070        -1.218423
 C         3.037053         0.824510         1.167680
 O         1.531398         0.785725         1.009046
 H        -0.334212         0.873073        -0.748400
 H        -0.051001        -0.850236        -1.376939
 H        -0.537913        -0.554437         0.341091
 H         1.591542        -1.878866         1.072159
 H         2.648090        -1.924270        -0.484329
 H         4.026565        -1.285248         1.788836
 H         4.210097         1.770014        -0.606968
 H         2.077590         1.547009        -1.604892
 H         2.795380        -0.053378        -1.920416
 H         3.383038         1.658580         1.844170
