19
Iteration:  1057
 C        -0.019985        -0.163799        -0.322326
 C         1.503651        -0.122020        -0.147357
 C         2.397034        -1.331522         0.218077
 C         3.528842        -0.687801         0.955738
 O         4.503988        -0.095763         0.010606
 C         3.562807         0.978279        -0.284983
 C         2.378865         0.602214        -1.252557
 C         2.931663         0.779375         1.146242
 O         1.620765         0.656504         0.943548
 H        -0.437386        -0.624717         0.523042
 H        -0.488670         0.827511        -0.427216
 H        -0.231127        -0.715632        -1.236913
 H         1.799122        -1.988951         0.970134
 H         2.912410        -2.060894        -0.471812
 H         4.162138        -1.087361         1.877828
 H         4.075295         1.887252        -0.555686
 H         1.994785         1.609563        -1.611712
 H         2.857440        -0.013070        -2.022163
 H         3.280860         1.310998         2.094012
