19
Iteration:   529charge 0 multiplicity 1
 C         0.178062        -0.430621        -0.687908
 C         1.480731        -0.119680        -0.086115
 C         2.266510        -1.349462         0.474338
 C         3.579521        -0.576548         0.944508
 O         4.310014        -0.292172        -0.218254
 C         3.616557         0.941564        -0.283805
 C         2.313889         0.845067        -1.081587
 C         3.123006         0.836110         1.192323
 O         1.622524         0.820334         1.095233
 H        -0.532866        -0.901820         0.069505
 H        -0.345434         0.506495        -1.064333
 H         0.236276        -1.063398        -1.606508
 H         1.572297        -1.797682         1.289570
 H         2.492216        -2.195073        -0.252694
 H         4.158562        -1.236571         1.719050
 H         4.261127         1.756471        -0.468736
 H         1.849166         1.763113        -1.228729
 H         2.550103         0.440813        -2.081484
 H         3.452837         1.296707         2.095199
