19
Iteration:  2335
 C         0.091249        -0.298504        -0.492525
 C         1.450244        -0.024493        -0.100920
 C         2.246601        -1.298510         0.345404
 C         3.532053        -0.687568         0.987695
 O         4.487137        -0.192484        -0.102827
 C         3.588796         0.925779        -0.287027
 C         2.385877         0.659656        -1.195465
 C         3.025140         0.776923         1.096028
 O         1.604851         0.798184         1.062151
 H        -0.346301        -0.818940         0.361956
 H        -0.363909         0.670057        -0.836756
 H         0.155914        -0.962590        -1.401588
 H         1.799654        -1.801789         1.232696
 H         2.649717        -2.105244        -0.354329
 H         4.116710        -1.257181         1.685258
 H         4.107124         1.913587        -0.519603
 H         1.982534         1.659840        -1.706536
 H         2.591792        -0.056224        -1.960937
 H         3.309824         1.206719         2.076417
