19
Iteration:   754charge 0 multiplicity 1
 C        -0.079112        -0.261695        -0.338780
 C         1.427897        -0.176970        -0.132413
 C         2.333566        -1.318167         0.231873
 C         3.575923        -0.708722         0.865462
 O         4.550643        -0.108867         0.055872
 C         3.594592         0.977627        -0.260054
 C         2.461257         0.600585        -1.172128
 C         2.982665         0.824038         1.107934
 O         1.585353         0.763474         0.977319
 H        -0.472704        -0.634854         0.561915
 H        -0.441400         0.769868        -0.490870
 H        -0.397588        -0.807134        -1.216623
 H         1.972661        -2.074182         0.887117
 H         2.676208        -1.636738        -0.802694
 H         4.038573        -1.381193         1.468031
 H         4.210041         1.918111        -0.629818
 H         2.136535         1.449604        -1.702743
 H         2.637253        -0.037555        -1.956518
 H         3.221046         1.495218         1.897520
