19
Iteration:  1787charge 0 multiplicity 1
 C        -0.083454        -0.212434        -0.381255
 C         1.442741        -0.061615        -0.200136
 C         2.336941        -1.389282         0.202255
 C         3.538845        -0.620110         0.930954
 O         4.640003        -0.085667         0.050823
 C         3.568642         0.992035        -0.299556
 C         2.477107         0.544406        -1.226545
 C         2.972108         0.751739         1.106185
 O         1.582932         0.749016         1.082633
 H        -0.418521        -0.661960         0.605314
 H        -0.754469         0.626570        -0.549173
 H        -0.399120        -0.950412        -1.119344
 H         1.646210        -2.125954         0.871089
 H         2.572070        -2.016555        -0.676024
 H         3.889307        -1.217668         1.746178
 H         4.098319         2.036225        -0.659952
 H         1.963993         1.367789        -1.743130
 H         2.793456        -0.205414        -1.992744
 H         3.331980         1.258959         1.967182
