19
Iteration:  1776
 C        -0.144423        -0.198931        -0.368453
 C         1.407345        -0.158740        -0.211657
 C         2.294917        -1.299564         0.172107
 C         3.598601        -0.620619         0.905292
 O         4.582114        -0.094743         0.045266
 C         3.633342         0.976769        -0.211298
 C         2.413520         0.512776        -1.193230
 C         2.979481         0.811117         1.134241
 O         1.609271         0.698505         0.984307
 H        -0.437071        -0.567105         0.661687
 H        -0.539928         0.814851        -0.512688
 H        -0.431443        -0.941124        -1.105706
 H         1.995211        -2.106794         1.002059
 H         2.857846        -1.771194        -0.612680
 H         4.053721        -1.096241         1.745368
 H         4.234274         1.972509        -0.611669
 H         2.141001         1.429357        -1.725455
 H         2.912525        -0.188711        -1.902263
 H         3.273782         1.296567         2.026506
