19
Iteration:   658charge 0 multiplicity 1
 C         0.101171        -0.336904        -0.537890
 C         1.518558        -0.053708        -0.137799
 C         2.249607        -1.381678         0.468187
 C         3.544887        -0.665893         0.871280
 O         4.423193        -0.166994        -0.164139
 C         3.630323         0.980169        -0.254691
 C         2.378713         0.665546        -1.141300
 C         3.045281         0.799539         1.186029
 O         1.581799         0.797805         1.056723
 H        -0.425004        -0.876877         0.243685
 H        -0.463648         0.576663        -0.732818
 H         0.111853        -0.876479        -1.495857
 H         1.708810        -1.846145         1.241299
 H         2.633183        -2.115194        -0.333830
 H         4.021067        -1.288671         1.648264
 H         4.129431         1.866694        -0.593994
 H         1.842146         1.658018        -1.415943
 H         2.598839         0.170710        -2.132587
 H         3.456824         1.331582         2.008680
