19
Iteration:  3870
 C         0.169077        -0.282806        -0.773773
 C         1.520254        -0.109041        -0.060133
 C         2.175342        -1.334403         0.442062
 C         3.500733        -0.695230         1.018942
 O         4.399287        -0.363314        -0.152363
 C         3.649172         1.014299        -0.321670
 C         2.374021         0.769853        -1.064913
 C         3.110380         0.802311         1.154591
 O         1.598719         0.852094         1.119321
 H        -0.559889        -0.738622        -0.072510
 H        -0.398723         0.533762        -1.335862
 H         0.162428        -1.133788        -1.588598
 H         1.568430        -1.909527         1.113905
 H         2.551527        -2.033280        -0.291119
 H         4.079213        -1.234522         1.816094
 H         4.341370         1.864700        -0.489912
 H         1.774248         1.706596        -1.072830
 H         2.345344         0.438540        -2.067516
 H         3.497733         1.479269         1.944266
