19
Iteration:  3349charge 0 multiplicity 1
 C         0.002798        -0.242918        -0.529516
 C         1.472704        -0.110456        -0.218012
 C         2.313738        -1.413909         0.363336
 C         3.480598        -0.697002         0.983248
 O         4.502245        -0.209805        -0.058089
 C         3.662567         0.942152        -0.290080
 C         2.428934         0.723545        -1.136791
 C         2.991196         0.819655         1.171313
 O         1.608328         0.785604         1.018088
 H        -0.652691        -0.416946         0.308055
 H        -0.344858         0.643503        -1.045201
 H        -0.138782        -0.986853        -1.365398
 H         1.750823        -1.939095         1.140094
 H         2.639957        -2.067687        -0.413934
 H         3.957384        -1.093698         1.859032
 H         4.322752         1.808988        -0.544827
 H         1.903814         1.737510        -1.190966
 H         2.498538         0.322392        -2.170232
 H         3.382980         1.298634         2.104747
