19
Iteration:   689
 C         0.144541        -0.440989        -0.777707
 C         1.497826        -0.025060        -0.071936
 C         2.294819        -1.325658         0.566350
 C         3.550861        -0.622119         0.926535
 O         4.338057        -0.315618        -0.249730
 C         3.630218         0.987822        -0.303792
 C         2.260603         0.803713        -1.006279
 C         3.091671         0.786858         1.149344
 O         1.636749         0.817150         1.150465
 H        -0.488136        -0.773948        -0.029869
 H        -0.349297         0.427309        -1.204259
 H         0.319245        -1.124694        -1.586161
 H         1.793953        -1.972586         1.241050
 H         2.863868        -1.914522        -0.289732
 H         3.971766        -1.148479         1.687577
 H         4.293363         1.897235        -0.609436
 H         1.629440         1.743583        -1.246893
 H         2.467676         0.224794        -1.894763
 H         3.566967         1.416951         1.898029
