19
Iteration:   783
 C         0.009630        -0.248412        -0.456937
 C         1.465632        -0.168537        -0.166694
 C         2.363554        -1.376180         0.304799
 C         3.543543        -0.634106         0.957063
 O         4.499849        -0.150703        -0.037564
 C         3.547486         0.981062        -0.293360
 C         2.395086         0.696782        -1.202624
 C         2.999661         0.766785         1.140805
 O         1.637633         0.743319         1.068555
 H        -0.529691        -0.806387         0.362439
 H        -0.418667         0.808409        -0.477971
 H        -0.174932        -0.764141        -1.447886
 H         1.792038        -2.100357         0.999753
 H         2.764247        -1.846474        -0.538791
 H         4.037085        -1.180485         1.878672
 H         4.074872         1.872091        -0.645577
 H         1.955337         1.612476        -1.705379
 H         2.449958        -0.022053        -2.085428
 H         3.275487         1.510484         1.934921
