19
Iteration:   398
 C         0.134341        -0.529766        -0.723989
 C         1.476124        -0.052412        -0.116919
 C         2.300910        -1.280355         0.451258
 C         3.578354        -0.653398         0.904558
 O         4.269253        -0.319877        -0.265953
 C         3.651619         1.015305        -0.226982
 C         2.351918         0.889031        -0.981101
 C         3.156284         0.749268         1.232027
 O         1.584484         0.861923         1.084147
 H        -0.476007        -1.064717         0.037090
 H        -0.377952         0.467593        -0.921314
 H         0.264814        -1.246584        -1.585817
 H         1.608839        -1.619731         1.317913
 H         2.283561        -2.087668        -0.399844
 H         4.133192        -1.340649         1.683020
 H         4.345510         1.759999        -0.493204
 H         1.754566         1.768229        -1.127426
 H         2.689982         0.428740        -1.936357
 H         3.630988         1.387834         2.030361
