19
Iteration:  2909charge 0 multiplicity 1
 C         0.132043        -0.247984        -0.536942
 C         1.552439        -0.119220        -0.104788
 C         2.208522        -1.320074         0.437614
 C         3.486134        -0.647520         0.976707
 O         4.437070        -0.306301        -0.094324
 C         3.639979         0.976880        -0.276575
 C         2.418801         0.749433        -1.194262
 C         3.032117         0.780025         1.109078
 O         1.588914         0.747879         1.006242
 H        -0.595703        -0.809558        -0.023985
 H        -0.320730         0.793876        -0.596631
 H         0.053958        -0.699992        -1.541154
 H         1.640288        -1.865018         1.215253
 H         2.476476        -2.055376        -0.363280
 H         4.059909        -1.079292         1.845739
 H         4.334312         1.816361        -0.468187
 H         1.834679         1.645734        -1.146654
 H         2.533479         0.464590        -2.207001
 H         3.245782         1.432905         1.928099
