19
Iteration:  2211
 C         0.025331        -0.157986        -0.360986
 C         1.497114        -0.109770        -0.206035
 C         2.259135        -1.406088         0.240353
 C         3.518839        -0.595834         0.937326
 O         4.553444        -0.103969         0.045177
 C         3.573732         1.020253        -0.290965
 C         2.415583         0.523209        -1.195022
 C         2.964735         0.732979         1.095223
 O         1.613687         0.710656         0.998730
 H        -0.292771        -0.639224         0.589433
 H        -0.284891         0.878790        -0.416774
 H        -0.283031        -0.800806        -1.177389
 H         1.755226        -2.119577         0.971220
 H         2.511148        -1.862891        -0.658143
 H         3.994519        -1.094431         1.830735
 H         4.104537         1.880827        -0.576936
 H         2.041925         1.476256        -1.588006
 H         2.814633        -0.151369        -2.051123
 H         3.229406         1.419318         1.899292
