19
Iteration:  3901
 C         0.150566        -0.348439        -0.760561
 C         1.538056        -0.004064        -0.107277
 C         2.212159        -1.228094         0.408868
 C         3.552595        -0.711475         0.956245
 O         4.335975        -0.336042        -0.216706
 C         3.644447         0.981415        -0.217988
 C         2.432174         0.744855        -1.077931
 C         3.073281         0.751639         1.241334
 O         1.561349         0.846101         1.118031
 H        -0.482000        -0.386378         0.120103
 H        -0.369370         0.280077        -1.436751
 H         0.321295        -1.359200        -1.170823
 H         1.593599        -1.606877         1.236997
 H         2.299540        -2.094195        -0.246331
 H         4.207020        -1.346217         1.586488
 H         4.338650         1.793021        -0.375379
 H         1.917722         1.648188        -1.398903
 H         2.504772         0.089250        -1.991208
 H         3.385779         1.369187         2.106522
