19
Iteration:  3780
 C        -0.013309        -0.219657        -0.604870
 C         1.497392        -0.097955        -0.236447
 C         2.296079        -1.348114         0.323616
 C         3.479386        -0.664813         1.052742
 O         4.470445        -0.235025        -0.053071
 C         3.646614         0.907696        -0.291895
 C         2.377476         0.710196        -1.100757
 C         3.050942         0.778942         1.168522
 O         1.653025         0.796759         1.056494
 H        -0.549368        -0.833209         0.217283
 H        -0.386506         0.813738        -0.623565
 H        -0.067173        -0.685308        -1.636158
 H         1.582566        -1.873281         0.962984
 H         2.725572        -2.205205        -0.259022
 H         3.907559        -1.246016         1.927250
 H         4.227966         1.750014        -0.609333
 H         1.974265         1.635819        -1.419183
 H         2.495519         0.174979        -2.150903
 H         3.418730         1.459534         1.971027
