19
Iteration:  3554charge 0 multiplicity 1
 C        -0.008944        -0.242695        -0.569436
 C         1.460853        -0.139338        -0.155059
 C         2.205701        -1.386308         0.306919
 C         3.541557        -0.679343         0.902067
 O         4.508210        -0.200700        -0.063275
 C         3.675986         1.008424        -0.238228
 C         2.450388         0.636792        -1.147520
 C         2.982667         0.798705         1.276573
 O         1.637943         0.828647         0.995598
 H        -0.522774        -0.275993         0.388066
 H        -0.438060         0.549061        -1.123917
 H        -0.145753        -1.205949        -1.108350
 H         1.665268        -1.862511         1.167767
 H         2.421565        -2.031029        -0.570968
 H         3.957434        -1.328527         1.667350
 H         4.268863         1.883953        -0.525120
 H         1.859855         1.580912        -1.294954
 H         2.758467         0.107357        -1.950621
 H         3.458464         1.357569         2.092260
