19
Iteration:   581
 C        -0.012025        -0.329749        -0.571090
 C         1.464757        -0.105078        -0.132917
 C         2.329434        -1.331019         0.384220
 C         3.586578        -0.678265         0.983372
 O         4.464039        -0.198527        -0.150285
 C         3.642323         0.986940        -0.292394
 C         2.377272         0.659688        -1.081529
 C         3.011932         0.797568         1.165491
 O         1.627383         0.841189         1.047634
 H        -0.516055        -0.829828         0.241378
 H        -0.581508         0.559619        -0.902273
 H        -0.069154        -1.105150        -1.337357
 H         1.873138        -1.925877         1.092236
 H         2.581452        -1.977537        -0.551382
 H         3.933458        -1.354969         1.763188
 H         4.172451         1.911217        -0.580924
 H         1.791532         1.629742        -1.384804
 H         2.575100         0.160654        -2.040902
 H         3.294654         1.427576         2.046171
