19
Iteration:   148charge 0 multiplicity 1
 C         0.019746        -0.324996        -0.526036
 C         1.491842        -0.076859        -0.110075
 C         2.309900        -1.379684         0.235110
 C         3.521772        -0.675979         0.954461
 O         4.493053        -0.199292        -0.038137
 C         3.626331         0.929833        -0.329570
 C         2.373444         0.660872        -1.105810
 C         3.026894         0.796807         1.147139
 O         1.585302         0.889431         1.080731
 H        -0.450790        -0.829302         0.293071
 H        -0.587852         0.575731        -0.687176
 H         0.004036        -1.026330        -1.367577
 H         1.850064        -1.940508         1.011881
 H         2.655272        -1.995716        -0.558382
 H         4.041422        -1.319141         1.758670
 H         4.025048         1.973290        -0.629904
 H         2.048029         1.703291        -1.354577
 H         2.562070         0.115582        -2.110475
 H         3.476728         1.320146         1.947550
