19
Iteration:   427charge 0 multiplicity 1
 C         0.165919        -0.336650        -0.622409
 C         1.446790        -0.016389        -0.069233
 C         2.264048        -1.364728         0.363804
 C         3.561912        -0.653836         0.936711
 O         4.431489        -0.204915        -0.124291
 C         3.601624         0.964567        -0.341489
 C         2.324892         0.780062        -1.082377
 C         3.030924         0.745738         1.155927
 O         1.625801         0.736490         1.140910
 H        -0.487226        -0.747289         0.137379
 H        -0.370013         0.585636        -0.903707
 H         0.195674        -1.002227        -1.500135
 H         1.678380        -1.886717         1.043361
 H         2.368193        -2.006234        -0.563943
 H         4.031848        -1.109930         1.733405
 H         4.267927         1.795531        -0.631835
 H         1.779009         1.680368        -1.452394
 H         2.576929         0.120652        -1.877125
 H         3.605728         1.414771         1.828144
