19
Iteration:  4819
 C         0.011724        -0.187257        -0.551995
 C         1.502136        -0.051199        -0.158313
 C         2.250035        -1.341779         0.355630
 C         3.495047        -0.678319         1.005131
 O         4.460856        -0.277853        -0.043058
 C         3.667380         0.897404        -0.247579
 C         2.512409         0.652031        -1.208337
 C         3.027632         0.816237         1.171010
 O         1.537425         0.791102         1.013625
 H        -0.354335         0.874786        -0.743794
 H        -0.056637        -0.839986        -1.390306
 H        -0.558122        -0.598403         0.317645
 H         1.592168        -1.862532         1.054256
 H         2.663611        -1.922517        -0.473914
 H         3.996434        -1.285247         1.778327
 H         4.197865         1.779641        -0.624443
 H         2.058893         1.499434        -1.601296
 H         2.790488        -0.038066        -1.919843
 H         3.415593         1.667126         1.854240
