19
Iteration:  3183charge 0 multiplicity 1
 C         0.144530        -0.400870        -0.675304
 C         1.522369        -0.109782        -0.106383
 C         2.207875        -1.294276         0.447607
 C         3.509678        -0.702774         0.944280
 O         4.366787        -0.275635        -0.142585
 C         3.670805         0.954262        -0.276596
 C         2.413995         0.799532        -1.093623
 C         3.030702         0.770473         1.120466
 O         1.624064         0.873677         1.097628
 H        -0.642389        -0.489200         0.160194
 H        -0.233766         0.403784        -1.329802
 H         0.184696        -1.202217        -1.383504
 H         1.699953        -1.763210         1.285200
 H         2.357032        -2.087181        -0.341521
 H         3.920376        -1.243931         1.819492
 H         4.317468         1.825754        -0.496611
 H         1.805557         1.833043        -1.096046
 H         2.638273         0.537366        -2.093751
 H         3.416424         1.193122         2.034393
