19
Iteration:  2234
 C        -0.126335        -0.255214        -0.366320
 C         1.446836        -0.053155        -0.189267
 C         2.364610        -1.309388         0.259450
 C         3.575129        -0.781400         0.836549
 O         4.606005        -0.101101         0.057501
 C         3.648899         0.969491        -0.243641
 C         2.412960         0.532869        -1.253992
 C         2.977077         0.800140         1.167155
 O         1.524126         0.814301         1.026075
 H        -0.656178        -0.663125         0.501158
 H        -0.390754         0.804239        -0.561678
 H        -0.309361        -0.930515        -1.242696
 H         1.821560        -1.942912         1.067534
 H         2.568266        -1.862554        -0.597619
 H         4.191046        -1.313252         1.576900
 H         4.260261         1.794479        -0.592064
 H         2.079073         1.482737        -1.811152
 H         2.788054        -0.314971        -1.944110
 H         3.293312         1.474399         1.915057
