19
Iteration:  4362charge 0 multiplicity 1
 C        -0.072507        -0.106943        -0.501914
 C         1.493237        -0.104428        -0.265008
 C         2.254524        -1.333498         0.382669
 C         3.538693        -0.747233         0.982616
 O         4.479126        -0.226427        -0.080671
 C         3.654219         0.952256        -0.151511
 C         2.500697         0.690876        -1.153383
 C         2.956572         0.750903         1.138279
 O         1.628945         0.718959         0.943993
 H        -0.383305        -0.951942         0.173754
 H        -0.485125         0.907727        -0.175324
 H        -0.581279        -0.253407        -1.458359
 H         1.800829        -1.938264         1.187338
 H         2.691410        -2.104560        -0.297296
 H         4.239353        -1.246317         1.685196
 H         4.140053         1.923264        -0.511263
 H         2.021867         1.620753        -1.364808
 H         2.952572         0.352730        -2.023022
 H         3.286166         1.354896         1.948121
