19
Iteration:  1342charge 0 multiplicity 1
 C        -0.014273        -0.235875        -0.337269
 C         1.474553        -0.165515        -0.182404
 C         2.285425        -1.364771         0.212847
 C         3.542647        -0.655687         0.882197
 O         4.530668        -0.038871         0.048460
 C         3.609821         0.985326        -0.253789
 C         2.440424         0.576884        -1.219832
 C         2.951520         0.793430         1.085831
 O         1.570562         0.741830         1.019246
 H        -0.297062        -0.483124         0.707050
 H        -0.261761         0.845505        -0.323666
 H        -0.269158        -0.830127        -1.198493
 H         1.854852        -1.985846         0.969284
 H         2.737507        -2.023116        -0.647136
 H         4.157336        -1.436042         1.609607
 H         4.155724         1.800432        -0.669728
 H         2.155001         1.470655        -1.734898
 H         2.719527        -0.201436        -1.953426
 H         3.260006         1.171375         2.071010
