19
Iteration:  2912charge 0 multiplicity 1
 C         0.096391        -0.240934        -0.517755
 C         1.540433        -0.124660        -0.112919
 C         2.221326        -1.330216         0.414413
 C         3.492295        -0.656832         0.975217
 O         4.449640        -0.280101        -0.094984
 C         3.659823         0.947594        -0.269526
 C         2.441131         0.728872        -1.182215
 C         3.013452         0.780738         1.102352
 O         1.592128         0.780662         1.001900
 H        -0.634762        -0.897904         0.010933
 H        -0.314556         0.765219        -0.591843
 H         0.058815        -0.620019        -1.508683
 H         1.656333        -1.849246         1.191470
 H         2.525653        -2.019735        -0.439757
 H         4.006670        -1.129243         1.834271
 H         4.347407         1.863174        -0.407249
 H         1.787479         1.654077        -1.211206
 H         2.466388         0.322227        -2.170855
 H         3.174270         1.417545         2.029614
