19
Iteration:  3881
 C         0.132065        -0.372531        -0.791794
 C         1.475767        -0.007971        -0.073897
 C         2.232837        -1.354764         0.472433
 C         3.464868        -0.688435         1.023742
 O         4.340934        -0.346292        -0.143307
 C         3.596205         0.982919        -0.285044
 C         2.345248         0.826038        -1.109740
 C         3.088449         0.794166         1.142691
 O         1.722257         0.826145         1.151849
 H        -0.772256        -0.583272        -0.232158
 H         0.042293         0.585953        -1.438837
 H         0.659679        -1.182221        -1.418541
 H         1.539866        -1.776757         1.179674
 H         2.470982        -2.036951        -0.331819
 H         4.071637        -1.353259         1.672802
 H         4.241038         1.823966        -0.638930
 H         1.872815         1.816561        -1.290342
 H         2.614709         0.334521        -2.016933
 H         3.534970         1.314224         2.010098
