19
Iteration:  1132charge 0 multiplicity 1
 C         0.143099        -0.440720        -0.649385
 C         1.532318        -0.114953        -0.073632
 C         2.300749        -1.403036         0.407215
 C         3.526213        -0.643868         0.970823
 O         4.275618        -0.273440        -0.221914
 C         3.684153         1.006244        -0.322546
 C         2.362974         0.833847        -1.060315
 C         3.022346         0.843114         1.207787
 O         1.598906         0.832813         1.107666
 H        -0.564795        -0.907757        -0.004229
 H        -0.395422         0.359178        -1.208632
 H         0.477707        -1.135230        -1.448927
 H         1.919498        -1.834285         1.391988
 H         2.588773        -2.159893        -0.236072
 H         4.288227        -1.244919         1.616657
 H         4.181051         1.953816        -0.688049
 H         1.925641         1.848441        -1.069254
 H         2.476169         0.478663        -2.072910
 H         3.556537         1.499752         1.953409
