19
Iteration:  3815charge 0 multiplicity 1
 C         0.006954        -0.157189        -0.358785
 C         1.480601        -0.107731        -0.216000
 C         2.233424        -1.354207         0.140896
 C         3.443253        -0.707284         0.910236
 O         4.542826        -0.140192         0.069134
 C         3.679489         0.940208        -0.248232
 C         2.520446         0.522482        -1.164753
 C         2.944348         0.802892         1.157193
 O         1.594663         0.823147         0.975604
 H        -0.419456        -0.953647         0.295831
 H        -0.407442         0.862130        -0.128843
 H        -0.445171        -0.427816        -1.416521
 H         1.631261        -1.834509         0.876271
 H         2.680130        -1.976536        -0.609126
 H         3.813665        -1.367379         1.723848
 H         4.173496         1.867541        -0.568172
 H         2.230414         1.411987        -1.690082
 H         2.878698        -0.292940        -1.790988
 H         3.281589         1.292885         2.109045
