19
Iteration:  3973charge 0 multiplicity 1
 C        -0.018501        -0.136019        -0.503237
 C         1.456029        -0.059598        -0.144879
 C         2.316807        -1.384997         0.202632
 C         3.493878        -0.700295         0.937041
 O         4.490889        -0.219199         0.051914
 C         3.702196         0.987118        -0.314484
 C         2.458705         0.541256        -1.107462
 C         2.978678         0.820042         1.129400
 O         1.581902         0.779091         1.066514
 H        -0.643455        -0.930888         0.111763
 H        -0.673774         0.815756        -0.266333
 H        -0.072132        -0.251121        -1.583022
 H         1.891725        -2.249660         0.784641
 H         2.707173        -1.872535        -0.728357
 H         3.995994        -1.252025         1.764774
 H         4.264451         1.893234        -0.664360
 H         2.116818         1.509363        -1.479302
 H         2.676077        -0.145499        -2.015158
 H         3.236618         1.489224         1.963614
