19
Iteration:  1953charge 0 multiplicity 1
 C        -0.022371        -0.283316        -0.482845
 C         1.426079        -0.120757        -0.175327
 C         2.325229        -1.315782         0.317090
 C         3.559191        -0.638118         0.914644
 O         4.543683        -0.174695        -0.087527
 C         3.623225         1.015363        -0.239003
 C         2.410973         0.591247        -1.128851
 C         2.982181         0.801106         1.106077
 O         1.585074         0.760272         1.065558
 H        -0.626222        -0.642680         0.347598
 H        -0.430166         0.735211        -0.539720
 H        -0.298669        -0.962734        -1.298733
 H         1.930989        -2.045260         1.022461
 H         2.691940        -1.892198        -0.551594
 H         4.055865        -1.279940         1.670181
 H         4.219247         2.038389        -0.380134
 H         2.049450         1.537865        -1.534242
 H         2.706034        -0.032102        -1.966515
 H         3.305111         1.353267         2.003711
