19
Iteration:  3668
 C        -0.062062        -0.102835        -0.385165
 C         1.479455        -0.148061        -0.199169
 C         2.295151        -1.439221         0.246707
 C         3.440893        -0.744972         1.018571
 O         4.522849        -0.112463         0.010485
 C         3.622765         1.053469        -0.200839
 C         2.501501         0.573155        -1.264615
 C         3.043349         0.771306         1.163856
 O         1.619336         0.759967         0.910154
 H        -0.708441        -0.660994         0.376767
 H        -0.490495         0.951545        -0.254400
 H        -0.357431        -0.463827        -1.358716
 H         1.690603        -2.077071         0.929951
 H         2.679398        -1.948620        -0.654742
 H         3.953054        -1.248533         1.864661
 H         4.318972         1.892170        -0.434758
 H         2.042459         1.419022        -1.775420
 H         2.880300        -0.250033        -1.943484
 H         3.184832         1.248709         2.129111
