19
Iteration:  4348
 C         0.069210        -0.190372        -0.584038
 C         1.518562        -0.083756        -0.161768
 C         2.233164        -1.393575         0.373572
 C         3.481299        -0.710099         0.941156
 O         4.397282        -0.227111        -0.100354
 C         3.650296         1.008371        -0.232916
 C         2.425814         0.711102        -1.154536
 C         3.093004         0.734824         1.202931
 O         1.630277         0.767603         1.030817
 H        -0.534954        -0.804565         0.053504
 H        -0.423456         0.819908        -0.518980
 H         0.144107        -0.578305        -1.636061
 H         1.551593        -1.703968         1.159146
 H         2.374327        -2.175124        -0.368434
 H         3.912241        -1.353383         1.736299
 H         4.277398         1.868594        -0.369454
 H         1.874933         1.679444        -1.398702
 H         2.632537         0.160343        -2.091337
 H         3.413077         1.293749         2.096805
