19
Iteration:   235
 C         0.105366        -0.412498        -0.747239
 C         1.448373        -0.030364        -0.121574
 C         2.284953        -1.314881         0.415401
 C         3.570821        -0.640001         0.943088
 O         4.409171        -0.286641        -0.192902
 C         3.617508         0.968818        -0.302431
 C         2.293617         0.799424        -1.092844
 C         3.116058         0.838697         1.166257
 O         1.626058         0.805133         1.265172
 H        -0.498709        -0.971374        -0.061208
 H        -0.587417         0.363606        -1.141430
 H         0.343485        -1.151506        -1.551758
 H         1.599509        -1.665436         1.195074
 H         2.338209        -2.115159        -0.347774
 H         4.091104        -1.390393         1.726175
 H         4.412005         1.651875        -0.664984
 H         1.880065         1.843840        -1.285540
 H         2.555109         0.150828        -2.078244
 H         3.379622         1.258363         2.096050
