19
Iteration:  3529
 C        -0.000021        -0.119380        -0.416276
 C         1.463150        -0.106101        -0.165820
 C         2.386269        -1.349031         0.165706
 C         3.510677        -0.695140         1.008164
 O         4.538687        -0.195500         0.069432
 C         3.622311         0.927837        -0.304258
 C         2.429693         0.599483        -1.280791
 C         2.925492         0.792330         1.109752
 O         1.550263         0.762454         1.079500
 H        -0.569181        -0.238914         0.555143
 H        -0.330501         0.814191        -0.871301
 H        -0.192624        -0.912937        -1.100187
 H         1.744817        -1.926485         0.817370
 H         2.907464        -1.924746        -0.634888
 H         3.893250        -1.364060         1.854357
 H         4.176630         1.849409        -0.309334
 H         1.904598         1.497907        -1.621451
 H         2.813799        -0.149594        -2.070354
 H         3.493175         1.457617         1.768190
