19
Iteration:  4849
 C         0.127809        -0.378320        -0.705198
 C         1.487628         0.014349        -0.059425
 C         2.157186        -1.327930         0.442454
 C         3.470269        -0.719125         0.977656
 O         4.416115        -0.316839        -0.074311
 C         3.700448         0.895313        -0.260585
 C         2.381690         0.734438        -1.135717
 C         3.109725         0.822826         1.183499
 O         1.633063         0.945171         1.033647
 H        -0.677114         0.359283        -0.576308
 H         0.240953        -0.447918        -1.796967
 H        -0.322423        -1.328584        -0.452417
 H         1.514700        -1.855806         1.204466
 H         2.431498        -2.088532        -0.300705
 H         3.916439        -1.364646         1.801083
 H         4.249428         1.725105        -0.660707
 H         1.783276         1.644131        -1.506231
 H         2.537445         0.140047        -2.064364
 H         3.640473         1.445700         1.862100
