19
Iteration:  4705charge 0 multiplicity 1
 C         0.087685        -0.219383        -0.605472
 C         1.528007        -0.113331        -0.165674
 C         2.232835        -1.375265         0.459574
 C         3.438579        -0.694000         0.955261
 O         4.376935        -0.307597        -0.186967
 C         3.715235         1.005733        -0.195993
 C         2.499838         0.810861        -1.131118
 C         3.016160         0.769681         1.170789
 O         1.583810         0.729634         1.026487
 H        -0.001682        -0.849410        -1.480098
 H        -0.711441        -0.464289         0.155985
 H        -0.310267         0.718712        -1.056399
 H         1.606342        -1.632225         1.349127
 H         2.516327        -2.218928        -0.202235
 H         4.099538        -1.076585         1.790307
 H         4.481740         1.801037        -0.339967
 H         1.921926         1.782872        -1.251165
 H         2.902217         0.332180        -2.103840
 H         3.217717         1.409044         2.017680
