19
Iteration:  3320
 C         0.204664        -0.406382        -0.694797
 C         1.567653        -0.022365        -0.176941
 C         2.242579        -1.314177         0.477950
 C         3.520078        -0.705373         1.027928
 O         4.318415        -0.346164        -0.256370
 C         3.636626         0.948559        -0.250614
 C         2.357855         0.824005        -1.104354
 C         3.050382         0.851551         1.203352
 O         1.587987         0.817697         1.119968
 H        -0.422188        -0.981996        -0.051751
 H        -0.365369         0.566182        -0.881673
 H         0.254214        -0.872387        -1.684299
 H         1.531700        -1.567483         1.313596
 H         2.532045        -2.051514        -0.302805
 H         4.068838        -1.135808         1.899640
 H         4.327533         1.812331        -0.404151
 H         1.898581         1.725137        -1.301249
 H         2.540703         0.193789        -2.077512
 H         3.486178         1.429505         2.045119
