19
Iteration:  4862
 C         0.104127        -0.359401        -0.707967
 C         1.498612        -0.070413        -0.167662
 C         2.130985        -1.304061         0.521542
 C         3.521811        -0.718479         1.037193
 O         4.369469        -0.362272        -0.138568
 C         3.667980         0.949278        -0.303987
 C         2.492665         0.756866        -1.066252
 C         3.021421         0.828162         1.089496
 O         1.633076         0.911348         1.050141
 H        -0.739386         0.289031        -0.303328
 H         0.201641        -0.287080        -1.740877
 H        -0.019332        -1.396952        -0.402601
 H         1.459333        -1.643418         1.341036
 H         2.277978        -2.060482        -0.252512
 H         4.183644        -1.310916         1.702653
 H         4.431700         1.689176        -0.410980
 H         2.138652         1.773335        -1.093039
 H         2.763061         0.356282        -1.974234
 H         3.323695         1.596434         1.882470
