19
Iteration:  3937charge 0 multiplicity 1
 C        -0.029801        -0.172169        -0.455271
 C         1.492624        -0.041693        -0.258318
 C         2.303141        -1.421950         0.268247
 C         3.542511        -0.691804         1.018042
 O         4.447061        -0.218370         0.064841
 C         3.677920         0.983321        -0.266923
 C         2.438996         0.678527        -1.201323
 C         2.996652         0.756223         1.155423
 O         1.626984         0.756237         0.947542
 H        -0.355374        -0.528962         0.529047
 H        -0.529149         0.854109        -0.779657
 H        -0.402648        -1.037015        -1.122912
 H         1.607429        -1.840830         0.976617
 H         2.613319        -2.078187        -0.532548
 H         3.953481        -1.447024         1.700023
 H         4.242501         1.957501        -0.420596
 H         1.900914         1.669367        -1.398518
 H         2.652052         0.197719        -2.088611
 H         3.388940         1.335348         1.983436
