19
Iteration:  4958charge 0 multiplicity 1
 C         0.069720        -0.209636        -0.521143
 C         1.539282        -0.118896        -0.205710
 C         2.201853        -1.319927         0.385646
 C         3.418609        -0.654498         1.029942
 O         4.446914        -0.296212        -0.037944
 C         3.693629         0.927401        -0.289449
 C         2.511082         0.600468        -1.146224
 C         2.954000         0.830560         1.117267
 O         1.610351         0.863896         0.959184
 H        -0.591691        -0.248211         0.380881
 H        -0.260995         0.685294        -1.034301
 H        -0.245081        -1.127990        -1.049533
 H         1.644759        -1.780299         1.232977
 H         2.650672        -2.067823        -0.258344
 H         3.943573        -1.209000         1.880415
 H         4.239630         1.783278        -0.695644
 H         2.071668         1.647468        -1.443085
 H         2.870105        -0.027978        -1.989817
 H         3.418740         1.370842         1.953311
