19
Iteration:  1971
 C         0.136478        -0.374604        -0.595509
 C         1.517667        -0.043737        -0.083873
 C         2.249432        -1.330824         0.369563
 C         3.560982        -0.684794         0.915913
 O         4.435317        -0.185726        -0.134236
 C         3.572883         0.985559        -0.308744
 C         2.367380         0.744889        -1.178960
 C         3.049687         0.752934         1.203649
 O         1.595242         0.797012         1.137894
 H        -0.519245        -1.009122         0.132104
 H        -0.499425         0.493118        -0.871982
 H         0.399580        -1.072702        -1.415247
 H         1.616514        -1.597721         1.298291
 H         2.281943        -2.099438        -0.335642
 H         4.042821        -1.229457         1.742625
 H         4.220499         1.773226        -0.734213
 H         1.764712         1.606995        -1.453162
 H         2.604140         0.110640        -2.105154
 H         3.463303         1.430044         1.986420
