19
Iteration:   875
 C         0.037582        -0.281582        -0.453729
 C         1.491711        -0.126117        -0.121886
 C         2.310091        -1.402062         0.294222
 C         3.583570        -0.648808         0.970630
 O         4.474167        -0.177546        -0.086074
 C         3.649376         0.990830        -0.309897
 C         2.362940         0.699697        -1.161695
 C         2.970661         0.815989         1.155860
 O         1.575971         0.742068         1.030515
 H        -0.584644        -0.582662         0.427281
 H        -0.389255         0.724209        -0.788257
 H        -0.045812        -1.066217        -1.259079
 H         1.823691        -1.975359         1.071834
 H         2.661227        -2.062414        -0.616317
 H         4.136938        -1.234139         1.648126
 H         4.212184         2.057099        -0.311076
 H         1.980142         1.654245        -1.494216
 H         2.489106         0.210525        -2.120181
 H         3.359344         1.440181         2.012633
