19
Iteration:  4629charge 0 multiplicity 1
 C         0.120158        -0.208687        -0.445433
 C         1.555615        -0.057153        -0.250575
 C         2.279078        -1.336591         0.277860
 C         3.442865        -0.708911         0.994308
 O         4.423829        -0.285029        -0.031142
 C         3.651619         0.951597        -0.205155
 C         2.454774         0.785659        -1.190097
 C         2.966912         0.720975         1.162977
 O         1.606212         0.777780         0.956304
 H        -0.358820        -1.202196        -0.330541
 H        -0.421941         0.397901         0.347143
 H        -0.315068         0.049583        -1.451679
 H         1.667896        -1.757959         1.129206
 H         2.566418        -2.112219        -0.478302
 H         4.047714        -1.392600         1.750706
 H         4.277215         1.866975        -0.331024
 H         1.977234         1.772497        -1.331050
 H         2.566539         0.242406        -2.176149
 H         3.179130         1.261304         2.101401
