19
Iteration:  1072
 C         0.055593        -0.269868        -0.405729
 C         1.518347        -0.164426        -0.201628
 C         2.306056        -1.372214         0.309569
 C         3.568546        -0.620638         0.939813
 O         4.522855        -0.165163        -0.104833
 C         3.604050         1.035910        -0.220451
 C         2.426355         0.628427        -1.149050
 C         2.977823         0.769739         1.158855
 O         1.529408         0.783220         1.000772
 H        -0.455738        -0.860731         0.430376
 H        -0.212521         0.790674        -0.429981
 H        -0.338457        -0.743764        -1.322287
 H         1.811769        -1.998239         0.991210
 H         2.481118        -2.008359        -0.635398
 H         3.941968        -1.282243         1.628223
 H         4.073216         1.997667        -0.474303
 H         1.772404         1.446182        -1.455568
 H         2.699880         0.009638        -2.032562
 H         3.229764         1.453595         1.951283
