19
Iteration:   140charge 0 multiplicity 1
 C         0.107574        -0.368460        -0.559096
 C         1.516965        -0.105939        -0.123660
 C         2.281288        -1.279143         0.348071
 C         3.503106        -0.718290         0.949857
 O         4.418691        -0.209170        -0.104859
 C         3.589055         0.926941        -0.260173
 C         2.368780         0.696900        -1.116594
 C         3.045810         0.827698         1.142087
 O         1.621470         0.850721         1.054344
 H        -0.379013        -0.839373         0.322562
 H        -0.378379         0.619405        -0.786708
 H         0.147862        -0.998501        -1.477807
 H         1.686625        -1.982350         1.035170
 H         2.469715        -1.899818        -0.509127
 H         4.076245        -1.244122         1.665788
 H         4.235958         1.949498        -0.567595
 H         1.768694         1.579351        -1.123565
 H         2.548882         0.226328        -2.113295
 H         3.545497         1.345455         1.961998
