19
Iteration:  4745charge 0 multiplicity 1
 C         0.120134        -0.369897        -0.684721
 C         1.463668        -0.027262        -0.109404
 C         2.172751        -1.258210         0.327255
 C         3.435738        -0.677985         0.983438
 O         4.382846        -0.353838        -0.110035
 C         3.696614         0.934245        -0.222896
 C         2.428163         0.721765        -1.080137
 C         3.113483         0.858437         1.166735
 O         1.642631         0.841877         1.088949
 H         0.138110        -0.179617        -1.798682
 H        -0.158776        -1.359304        -0.476414
 H        -0.555307         0.410675        -0.269718
 H         1.572177        -1.754322         1.066191
 H         2.469105        -1.915881        -0.498386
 H         3.720734        -1.348980         1.725266
 H         4.249149         1.787425        -0.656531
 H         1.919466         1.684924        -1.266349
 H         2.741582         0.193315        -2.001049
 H         3.644780         1.274689         2.118631
