19
Iteration:  1713charge 0 multiplicity 1
 C         0.128516        -0.520427        -0.740524
 C         1.425646        -0.007518        -0.085075
 C         2.292946        -1.310523         0.547272
 C         3.607727        -0.687295         0.893472
 O         4.348750        -0.329326        -0.287907
 C         3.668645         1.006551        -0.264278
 C         2.353179         0.823239        -1.056608
 C         3.045837         0.832483         1.221073
 O         1.581908         0.877422         1.162482
 H        -0.467464        -1.212225        -0.103671
 H        -0.496487         0.213890        -1.237640
 H         0.557464        -1.016825        -1.613231
 H         1.867546        -1.755517         1.379049
 H         2.282737        -2.093511        -0.279279
 H         4.195536        -1.209837         1.669426
 H         4.240206         1.846878        -0.588843
 H         1.949135         1.889671        -1.253477
 H         2.634034         0.291498        -2.020532
 H         3.387771         1.416847         2.037924
