19
Iteration:   729
 C         0.061014        -0.312573        -0.444875
 C         1.495335        -0.099074        -0.204432
 C         2.301715        -1.333464         0.348779
 C         3.512473        -0.656736         0.962231
 O         4.459180        -0.198454        -0.135422
 C         3.639160         1.024225        -0.221556
 C         2.398417         0.725269        -1.190014
 C         3.057340         0.781721         1.136895
 O         1.557041         0.734037         1.029918
 H        -0.206530        -0.707197         0.586696
 H        -0.620799         0.542207        -0.765554
 H        -0.096703        -1.137480        -1.205833
 H         1.634368        -1.692396         1.244441
 H         2.562125        -2.052686        -0.338846
 H         4.163448        -1.184115         1.758684
 H         4.134181         2.009616        -0.531810
 H         1.992654         1.615698        -1.664563
 H         2.608135         0.096128        -2.071014
 H         3.301176         1.164820         2.190193
