19
Iteration:  3980charge 0 multiplicity 1
 C        -0.050815        -0.157956        -0.557651
 C         1.478395        -0.096179        -0.172606
 C         2.275176        -1.400760         0.277291
 C         3.485503        -0.753817         0.935351
 O         4.499833        -0.196465         0.012371
 C         3.641710         0.992260        -0.272034
 C         2.445635         0.606374        -1.122895
 C         3.018836         0.827424         1.163519
 O         1.629277         0.797463         1.068730
 H        -0.406732        -1.044868        -0.125279
 H        -0.466684         0.828388        -0.258409
 H        -0.141036        -0.315145        -1.652928
 H         1.721334        -2.056211         0.913642
 H         2.724065        -1.865576        -0.587067
 H         4.032703        -1.242324         1.743412
 H         4.294829         1.693571        -0.852289
 H         1.957788         1.557093        -1.480297
 H         2.724741        -0.055350        -1.854718
 H         3.276899         1.451515         2.015516
