19
Iteration:   297charge 0 multiplicity 1
 C         0.009664        -0.244902        -0.442810
 C         1.463043        -0.107294        -0.140500
 C         2.276376        -1.332680         0.302838
 C         3.562989        -0.660302         0.971756
 O         4.445810        -0.162370        -0.114383
 C         3.602730         1.013340        -0.230113
 C         2.492891         0.712335        -1.219961
 C         2.979565         0.774092         1.149096
 O         1.596990         0.649329         1.015109
 H        -0.396844        -0.638228         0.507599
 H        -0.356009         0.800311        -0.573962
 H        -0.154295        -0.844234        -1.357881
 H         1.743057        -1.831056         1.129112
 H         2.696133        -2.164853        -0.391846
 H         4.099081        -1.121622         1.763689
 H         4.153907         1.883148        -0.430951
 H         1.976440         1.563781        -1.593177
 H         2.870046         0.244883        -2.048047
 H         3.350428         1.233749         2.059897
