19
Iteration:   163
 C        -0.101710        -0.267264        -0.394292
 C         1.386157        -0.028272        -0.147177
 C         2.367519        -1.345388         0.234088
 C         3.554698        -0.655890         0.920482
 O         4.608050        -0.188375         0.032711
 C         3.672880         0.979231        -0.259766
 C         2.381095         0.637623        -1.220509
 C         2.965856         0.789035         1.126633
 O         1.597657         0.749177         1.027507
 H        -0.647157        -0.775541         0.466394
 H        -0.565274         0.725263        -0.617049
 H        -0.137106        -0.838639        -1.346032
 H         1.775273        -2.147379         0.790275
 H         2.639598        -1.832632        -0.720603
 H         3.933389        -1.088814         1.776628
 H         4.503146         1.709431        -0.654043
 H         1.885571         1.437269        -1.698891
 H         2.641295        -0.139768        -1.896809
 H         3.282978         1.446905         1.992099
