19
Iteration:  4810charge 0 multiplicity 1
 C        -0.002370        -0.119738        -0.482944
 C         1.487576        -0.101125        -0.173155
 C         2.267671        -1.446758         0.380012
 C         3.437450        -0.739351         1.029647
 O         4.481457        -0.210770        -0.029858
 C         3.694659         0.953405        -0.238013
 C         2.503788         0.656884        -1.256690
 C         3.039090         0.857133         1.108041
 O         1.535971         0.752293         0.963836
 H        -0.278357         0.898940        -0.938584
 H        -0.232249        -0.885602        -1.217304
 H        -0.499162        -0.250706         0.520315
 H         1.710852        -2.021073         1.105622
 H         2.460047        -2.130305        -0.466558
 H         4.041566        -1.157375         1.781347
 H         4.435949         1.789224        -0.384427
 H         2.259548         1.624920        -1.611633
 H         2.831740        -0.011616        -2.055685
 H         3.170870         1.525139         2.082459
