19
Iteration:  3181
 C         0.150872        -0.397030        -0.671810
 C         1.530374        -0.116611        -0.096340
 C         2.240541        -1.310490         0.466964
 C         3.505927        -0.702265         0.941197
 O         4.344981        -0.291936        -0.150726
 C         3.683633         0.948832        -0.268837
 C         2.414834         0.829712        -1.083114
 C         3.031519         0.781629         1.109342
 O         1.612291         0.879069         1.093959
 H        -0.668226        -0.547877         0.083204
 H        -0.244614         0.433189        -1.369136
 H         0.217091        -1.194295        -1.394615
 H         1.670600        -1.759318         1.284262
 H         2.371496        -2.046035        -0.380079
 H         3.917786        -1.322608         1.789070
 H         4.289457         1.789749        -0.500953
 H         1.787973         1.838270        -1.101783
 H         2.587060         0.494029        -2.153006
 H         3.379903         1.290274         2.048193
