19
Iteration:  2858charge 0 multiplicity 1
 C         0.206336        -0.367535        -0.642878
 C         1.502841        -0.017563        -0.045308
 C         2.161885        -1.324682         0.395384
 C         3.476954        -0.743321         0.874933
 O         4.407903        -0.311503        -0.183107
 C         3.616668         1.043364        -0.230927
 C         2.418942         0.734625        -1.018062
 C         3.113725         0.774870         1.151516
 O         1.580837         0.909989         1.074789
 H        -0.659883        -0.535464         0.074502
 H        -0.235378         0.254460        -1.409374
 H         0.324684        -1.299847        -1.109760
 H         1.659057        -1.912263         1.145798
 H         2.282120        -2.065446        -0.459461
 H         4.003237        -1.354781         1.623017
 H         4.200345         1.949155        -0.613616
 H         1.860960         1.648540        -1.490973
 H         2.733885         0.028294        -1.814909
 H         3.359141         1.296290         2.138471
