19
Iteration:  1674
 C         0.033577        -0.357064        -0.555767
 C         1.535282        -0.097381        -0.122842
 C         2.313288        -1.368140         0.409472
 C         3.576662        -0.624572         0.935378
 O         4.365543        -0.252674        -0.150496
 C         3.613236         1.020503        -0.267944
 C         2.408178         0.795822        -1.168914
 C         3.014925         0.837140         1.188887
 O         1.612276         0.733122         1.068534
 H        -0.530389        -0.952259         0.161215
 H        -0.567063         0.565258        -0.742465
 H         0.075027        -1.015050        -1.443928
 H         1.680831        -1.852144         1.237494
 H         2.651705        -2.110021        -0.333079
 H         4.225165        -1.160636         1.659395
 H         4.417106         1.732985        -0.606917
 H         1.813452         1.611975        -1.457541
 H         2.659848         0.252354        -2.049541
 H         3.302078         1.540471         2.031813
