19
Iteration:   973
 C         0.162978        -0.470583        -0.696519
 C         1.556584        -0.049916        -0.070630
 C         2.251340        -1.287986         0.483019
 C         3.579826        -0.625490         0.922630
 O         4.242559        -0.294897        -0.266255
 C         3.692886         1.009097        -0.254927
 C         2.393359         0.866759        -1.028112
 C         3.061910         0.799592         1.164312
 O         1.589573         0.743287         1.089218
 H        -0.388086        -1.088270         0.083020
 H        -0.592684         0.346172        -0.871673
 H         0.319592        -1.219496        -1.502041
 H         1.639968        -1.546994         1.291091
 H         2.624764        -2.194740        -0.108454
 H         4.204355        -1.138840         1.579406
 H         4.327035         1.890259        -0.570964
 H         1.750724         1.731714        -1.159276
 H         2.421868         0.444611        -2.029622
 H         3.305059         1.478346         2.044574
