19
Iteration:  3425
 C         0.182136        -0.290263        -0.594374
 C         1.523649        -0.035509        -0.138964
 C         2.306490        -1.326564         0.361836
 C         3.501253        -0.726767         1.020404
 O         4.371553        -0.233279        -0.091310
 C         3.653775         0.912338        -0.378508
 C         2.352525         0.730722        -1.114078
 C         3.002307         0.757257         1.240663
 O         1.594790         0.819733         0.999621
 H        -0.493452        -0.679777         0.169437
 H        -0.270521         0.680533        -0.859139
 H         0.083371        -0.962088        -1.514274
 H         1.785111        -1.766119         1.223133
 H         2.569898        -2.183751        -0.219208
 H         3.924701        -1.240380         1.853299
 H         4.352052         1.772778        -0.498198
 H         1.861874         1.767655        -1.183201
 H         2.336251         0.341729        -2.158272
 H         3.439047         1.405278         2.050951
