19
Iteration:  3227charge 0 multiplicity 1
 C        -0.016415        -0.137246        -0.409146
 C         1.474076        -0.142969        -0.176421
 C         2.370791        -1.424134         0.228415
 C         3.511162        -0.624910         0.916515
 O         4.504836        -0.180974        -0.000175
 C         3.614541         0.993424        -0.222645
 C         2.565590         0.533983        -1.197652
 C         2.948128         0.731608         1.178127
 O         1.523976         0.820748         1.000666
 H        -0.475599        -0.167617         0.645060
 H        -0.341744         0.817696        -0.803975
 H        -0.501778        -0.861707        -1.068751
 H         1.741229        -2.083435         0.786014
 H         2.660921        -1.843450        -0.743365
 H         3.994897        -1.129199         1.760396
 H         4.090520         1.908809        -0.619623
 H         2.041935         1.522904        -1.624334
 H         2.789172        -0.104191        -1.985341
 H         3.243792         1.319533         2.005960
