19
Iteration:  3918charge 0 multiplicity 1
 C         0.099381        -0.311638        -0.508436
 C         1.512810        -0.084875        -0.170104
 C         2.200543        -1.330109         0.410105
 C         3.466163        -0.729781         0.901565
 O         4.454082        -0.282347        -0.168521
 C         3.685471         0.998278        -0.184857
 C         2.498905         0.771284        -1.104748
 C         2.969618         0.778182         1.179844
 O         1.586517         0.812705         0.992609
 H        -0.698952        -0.372177         0.285609
 H        -0.210499         0.575672        -1.185099
 H        -0.114919        -1.131203        -1.178042
 H         1.627184        -1.865206         1.209170
 H         2.414171        -2.109863        -0.361936
 H         3.920758        -1.198065         1.792282
 H         4.291934         1.881583        -0.477701
 H         2.030153         1.716731        -1.426453
 H         2.949487         0.394097        -2.045351
 H         3.263787         1.299065         2.082857
