19
Iteration:   594
 C         0.006673        -0.313540        -0.440698
 C         1.454150        -0.098330        -0.091841
 C         2.304735        -1.330031         0.240570
 C         3.500108        -0.625540         0.899732
 O         4.569553        -0.195475         0.020876
 C         3.611658         0.942472        -0.257599
 C         2.318072         0.637953        -1.188507
 C         3.043088         0.851052         1.113227
 O         1.606495         0.769640         1.024840
 H        -0.605875        -0.690634         0.452926
 H        -0.472327         0.671453        -0.706910
 H        -0.025804        -0.918691        -1.376691
 H         1.792083        -2.024004         0.893417
 H         2.729929        -1.908819        -0.621732
 H         4.177674        -1.157165         1.684641
 H         4.174490         1.774998        -0.557987
 H         1.862931         1.607681        -1.446524
 H         2.596647        -0.013045        -2.056417
 H         3.409870         1.478896         1.873600
