19
Iteration:  3811
 C        -0.018127        -0.147901        -0.369382
 C         1.469892        -0.116325        -0.185853
 C         2.259728        -1.327766         0.132687
 C         3.471782        -0.720548         0.894259
 O         4.561373        -0.163166         0.079303
 C         3.667845         0.954363        -0.290273
 C         2.538460         0.530258        -1.141853
 C         2.951951         0.790678         1.183644
 O         1.558342         0.830575         0.959709
 H        -0.504978        -0.862587         0.368201
 H        -0.419368         0.779271        -0.036745
 H        -0.184760        -0.415056        -1.407585
 H         1.673480        -1.890846         0.917370
 H         2.690048        -2.023412        -0.632072
 H         3.661591        -1.424729         1.734933
 H         4.173440         1.873131        -0.529552
 H         2.167370         1.412631        -1.677099
 H         2.812745        -0.332482        -1.899181
 H         3.236329         1.431456         2.022018
