19
Iteration:  2618
 C         0.125380        -0.323449        -0.574863
 C         1.552709        -0.061919        -0.173578
 C         2.299492        -1.317767         0.417302
 C         3.535926        -0.734016         0.988963
 O         4.371603        -0.299159        -0.172312
 C         3.533560         0.926019        -0.233518
 C         2.354284         0.769180        -1.174493
 C         3.048980         0.821565         1.201243
 O         1.656080         0.832012         1.051400
 H        -0.436005        -1.039008         0.073978
 H        -0.546583         0.608353        -0.697666
 H         0.039990        -0.660068        -1.627221
 H         1.722208        -1.641239         1.264559
 H         2.614949        -2.234897        -0.173251
 H         3.975996        -1.253415         1.827103
 H         4.288289         1.720597        -0.548341
 H         1.851581         1.771940        -1.205362
 H         2.620067         0.450676        -2.113690
 H         3.339793         1.567869         1.883916
