19
Iteration:  2776charge 0 multiplicity 1
 C        -0.011417        -0.239828        -0.573651
 C         1.473391        -0.026617        -0.124474
 C         2.257222        -1.313778         0.317459
 C         3.538125        -0.687190         0.991338
 O         4.523741        -0.219744        -0.061904
 C         3.637424         0.973953        -0.242433
 C         2.357803         0.632329        -1.195257
 C         3.025761         0.779133         1.122244
 O         1.628637         0.770406         1.073175
 H        -0.338568        -1.082647         0.035147
 H        -0.587861         0.674123        -0.430079
 H         0.007287        -0.573805        -1.660324
 H         1.723763        -1.800136         1.204780
 H         2.435222        -2.002065        -0.485992
 H         4.080669        -1.160075         1.831394
 H         4.121794         1.903447        -0.399591
 H         1.991258         1.421128        -1.779427
 H         2.716801        -0.218224        -1.826433
 H         3.390451         1.388919         1.953227
