19
Iteration:   105
 C         0.129187        -0.386648        -0.710560
 C         1.523009        -0.054824        -0.173907
 C         2.339365        -1.359391         0.640378
 C         3.577588        -0.655131         0.917276
 O         4.231911        -0.268676        -0.313687
 C         3.629910         0.978058        -0.206119
 C         2.473127         0.818252        -1.129352
 C         3.029167         0.808829         1.158604
 O         1.558699         0.759461         1.159334
 H        -0.516824        -0.830997         0.034046
 H        -0.445863         0.521041        -1.044911
 H         0.081468        -1.122398        -1.538808
 H         1.698809        -1.536427         1.517629
 H         2.478357        -2.155291        -0.044310
 H         4.264441        -1.073869         1.741926
 H         4.610515         1.772325        -0.484327
 H         1.896136         1.759856        -1.257970
 H         2.714872         0.485445        -2.221898
 H         3.460334         1.310332         1.974070
