19
Iteration:  2973charge 0 multiplicity 1
 C        -0.020301        -0.180327        -0.463778
 C         1.524540        -0.105682        -0.239737
 C         2.259555        -1.386449         0.353010
 C         3.563526        -0.683064         0.936665
 O         4.512606        -0.269518         0.025614
 C         3.658113         0.971104        -0.297927
 C         2.453525         0.676677        -1.141318
 C         2.980373         0.859301         1.129499
 O         1.562076         0.757723         0.945228
 H        -0.289867        -0.733665         0.404699
 H        -0.403988         0.889959        -0.285371
 H        -0.314297        -0.624067        -1.454496
 H         1.645120        -1.907250         1.105162
 H         2.451823        -2.214466        -0.339966
 H         3.872860        -1.228016         1.870041
 H         4.258839         1.798817        -0.573595
 H         1.891166         1.604008        -1.275787
 H         2.649386         0.195733        -2.153948
 H         3.332628         1.361135         2.011879
