19
Iteration:  1533
 C         0.089114        -0.436939        -0.632594
 C         1.485448        -0.061634        -0.113989
 C         2.261082        -1.306979         0.422211
 C         3.584191        -0.658461         0.896785
 O         4.463145        -0.224323        -0.205222
 C         3.580733         1.009253        -0.238248
 C         2.372439         0.717391        -1.143522
 C         3.045530         0.802571         1.225591
 O         1.584684         0.803685         1.147079
 H        -0.531887        -1.012528         0.018719
 H        -0.557042         0.420169        -0.901605
 H         0.284800        -1.039609        -1.534134
 H         1.561683        -1.753530         1.253791
 H         2.524685        -1.987118        -0.326149
 H         4.086075        -1.082760         1.764975
 H         4.248050         1.933131        -0.572412
 H         1.777772         1.693230        -1.447208
 H         2.500982         0.129529        -2.084514
 H         3.634246         1.423765         1.931133
