19
Iteration:  3786charge 0 multiplicity 1
 C        -0.040012        -0.193055        -0.579410
 C         1.442369        -0.106271        -0.207984
 C         2.301940        -1.357612         0.312498
 C         3.545495        -0.695195         1.034205
 O         4.521683        -0.227282        -0.009744
 C         3.664160         0.871459        -0.265080
 C         2.366009         0.694098        -1.175262
 C         3.013622         0.795280         1.122028
 O         1.629591         0.816172         1.040242
 H        -0.559611        -0.738841         0.175567
 H        -0.519844         0.790792        -0.417304
 H        -0.135644        -0.622622        -1.544581
 H         1.622717        -1.964374         0.965300
 H         2.864645        -1.974618        -0.419062
 H         3.911437        -1.154611         1.939818
 H         4.224267         1.821124        -0.487265
 H         2.057100         1.762106        -1.479978
 H         2.589550         0.078968        -2.008375
 H         3.321677         1.248329         2.059622
