19
Iteration:  3463charge 0 multiplicity 1
 C         0.072646        -0.416517        -0.751889
 C         1.522159        -0.051248        -0.132736
 C         2.222636        -1.253456         0.482835
 C         3.479822        -0.666011         1.014499
 O         4.307167        -0.272222        -0.204792
 C         3.675500         0.996672        -0.249967
 C         2.405152         0.756531        -1.068310
 C         3.122890         0.746250         1.208771
 O         1.669644         0.827031         1.077375
 H        -0.291318        -1.296755        -0.197200
 H        -0.588071         0.438378        -0.837700
 H         0.438792        -0.677259        -1.695678
 H         1.613820        -1.403992         1.368416
 H         2.322772        -2.049729        -0.272438
 H         4.067390        -1.365054         1.676360
 H         4.311165         1.813212        -0.583681
 H         1.868524         1.623342        -1.375089
 H         2.575443         0.014805        -1.883367
 H         3.357859         1.456783         1.966258
