19
Iteration:  1383
 C         0.116734        -0.369307        -0.558592
 C         1.509153        -0.073511        -0.126285
 C         2.329135        -1.334243         0.422426
 C         3.590965        -0.617692         0.911575
 O         4.356897        -0.241538        -0.167346
 C         3.656922         0.931358        -0.295568
 C         2.331335         0.744506        -1.060936
 C         3.015725         0.775911         1.196738
 O         1.585184         0.815121         1.054526
 H        -0.549967        -1.068651        -0.015644
 H        -0.440556         0.559669        -0.898753
 H         0.181720        -0.977812        -1.545831
 H         1.618599        -1.821504         1.205419
 H         2.669003        -2.019524        -0.348129
 H         4.172573        -1.145793         1.637914
 H         4.257703         1.927481        -0.430421
 H         1.730357         1.611104        -1.344490
 H         2.589553         0.331529        -2.026776
 H         3.412815         1.516967         1.865851
