19
Iteration:  1530
 C         0.080996        -0.423542        -0.606355
 C         1.506496        -0.068197        -0.105376
 C         2.253312        -1.302842         0.414951
 C         3.570727        -0.671247         0.907907
 O         4.472788        -0.208200        -0.179254
 C         3.593020         1.039255        -0.255283
 C         2.349211         0.700671        -1.145623
 C         3.066550         0.791954         1.199867
 O         1.593828         0.794289         1.125251
 H        -0.593848        -0.965821         0.067271
 H        -0.580681         0.403807        -0.885726
 H         0.226005        -0.985217        -1.545497
 H         1.575809        -1.746408         1.134033
 H         2.455087        -2.022131        -0.481248
 H         4.150836        -1.080868         1.816795
 H         4.215277         1.885324        -0.440330
 H         1.797136         1.519995        -1.492123
 H         2.525732         0.163165        -2.053797
 H         3.438669         1.435510         1.990747
