19
Iteration:  4639
 C        -0.020318        -0.185038        -0.418738
 C         1.538820        -0.104554        -0.275731
 C         2.278481        -1.294777         0.226191
 C         3.470242        -0.702423         0.948066
 O         4.506232        -0.239508         0.006120
 C         3.684725         0.897985        -0.216795
 C         2.445053         0.707640        -1.152854
 C         2.964110         0.791174         1.216513
 O         1.599512         0.752802         0.964066
 H        -0.154784        -1.275952        -0.339932
 H        -0.494560         0.475931         0.354828
 H        -0.228199         0.268199        -1.433334
 H         1.562900        -1.817838         0.929839
 H         2.577293        -2.052152        -0.545654
 H         3.699290        -1.496054         1.762765
 H         4.279836         1.729496        -0.643854
 H         1.895800         1.712498        -1.300108
 H         2.840267         0.323072        -2.182491
 H         3.316465         1.371913         2.118316
