19
Iteration:  1357charge 0 multiplicity 1
 C        -0.033741        -0.262034        -0.385131
 C         1.475896        -0.058366        -0.142836
 C         2.279914        -1.359375         0.247460
 C         3.524500        -0.670574         0.922553
 O         4.556296        -0.100792        -0.016494
 C         3.625795         1.042842        -0.307955
 C         2.424115         0.578820        -1.188224
 C         3.013978         0.764112         1.154714
 O         1.618639         0.712258         1.032905
 H        -0.507751        -0.932561         0.315491
 H        -0.594725         0.612171        -0.650478
 H        -0.170462        -0.934560        -1.245730
 H         1.688317        -1.929728         0.968592
 H         2.469518        -1.965151        -0.634599
 H         3.842180        -1.150524         1.853012
 H         4.021153         2.053686        -0.433370
 H         1.861499         1.377352        -1.766625
 H         2.824016        -0.077842        -2.000153
 H         3.365917         1.516671         1.891160
