19
Iteration:  3906
 O         0.111992         0.040867         0.230313
 C        -0.834855         0.764351         1.043820
 C        -1.727960         1.710207         0.258266
 C        -2.601545         2.332153         1.321845
 O        -1.867134         3.329580         2.071174
 C        -1.499353         1.990619         3.028169
 C        -0.280412         1.339676         2.403889
 C        -2.633140         1.108179         2.334639
 C        -1.902758        -0.107669         1.701992
 H         0.464251         0.814356        -0.244428
 H        -1.163670         2.442034        -0.270446
 H        -2.180972         1.075030        -0.589729
 H        -3.488095         2.776174         0.859700
 H        -1.447234         2.299623         4.075731
 H         0.511413         2.056193         2.067356
 H         0.056906         0.612155         3.047068
 H        -3.516263         1.010654         2.967215
 H        -1.396645        -0.841030         2.474699
 H        -2.423545        -0.539859         0.803382
