19
Iteration:   170charge 0 multiplicity 1
 O         0.304485         0.057807         0.469907
 C        -0.810698         0.759134         1.055860
 C        -1.572252         1.870568         0.152786
 C        -2.638044         2.314661         1.244634
 O        -1.937550         3.197098         2.200620
 C        -1.546383         1.979732         2.916531
 C        -0.292972         1.237754         2.311723
 C        -2.677729         1.184893         2.295037
 C        -2.020019         0.001431         1.630127
 H         0.028155        -0.070331        -0.434548
 H        -1.021985         2.798487        -0.127755
 H        -2.097740         1.403987        -0.649353
 H        -3.603135         2.756227         0.872594
 H        -1.430716         2.024210         4.012001
 H         0.577977         1.945231         2.324243
 H        -0.048904         0.282993         2.903977
 H        -3.567292         0.955060         2.900532
 H        -1.713533        -0.654112         2.458962
 H        -2.714125        -0.412622         0.862250
