19
Iteration:   493
 O         0.071571        -0.193581         0.284382
 C        -0.757663         0.788313         1.053561
 C        -1.444105         1.790496         0.193302
 C        -2.552472         2.382266         1.322230
 O        -2.024159         3.181379         2.321466
 C        -1.565419         1.931224         2.994682
 C        -0.274049         1.572794         2.324722
 C        -2.670544         1.163625         2.221956
 C        -1.976491        -0.001636         1.554937
 H         1.049460        -0.074393         0.352580
 H        -0.833938         2.559497        -0.203864
 H        -2.002056         1.250738        -0.577887
 H        -3.340814         2.751422         0.697263
 H        -1.660219         2.084398         4.081175
 H         0.192120         2.562874         2.124145
 H         0.201220         0.972261         3.087033
 H        -3.616608         1.023294         2.759237
 H        -1.707418        -0.740918         2.384622
 H        -2.582778        -0.443630         0.745893
