19
Iteration:  3138
 O         0.120381         0.189848         0.297667
 C        -0.835850         0.720927         1.142707
 C        -1.704699         1.658873         0.266078
 C        -2.622195         2.330731         1.239370
 O        -1.912817         3.232916         2.069179
 C        -1.405633         2.034130         2.913831
 C        -0.182835         1.466215         2.189136
 C        -2.678930         1.087048         2.428145
 C        -2.006036        -0.105401         1.750315
 H         0.424897        -0.723640         0.451881
 H        -0.987303         2.452214        -0.201664
 H        -2.028705         0.950853        -0.396437
 H        -3.662088         2.713061         0.927831
 H        -1.504395         2.336519         3.945629
 H         0.563660         2.146616         1.952358
 H         0.482222         0.876348         2.866354
 H        -3.451984         0.853894         3.137100
 H        -1.630820        -0.903299         2.414186
 H        -2.719854        -0.483149         0.998585
