19
Iteration:  4376charge 0 multiplicity 1
 O        -0.003638        -0.165355         0.201058
 C        -0.794187         0.773051         1.013193
 C        -1.569187         1.839375         0.259399
 C        -2.640878         2.289785         1.237777
 O        -2.008709         3.168459         2.265455
 C        -1.484503         2.001007         2.968160
 C        -0.232719         1.607963         2.291447
 C        -2.602018         1.123954         2.379551
 C        -1.879409        -0.043170         1.703402
 H         0.916010         0.142201         0.101132
 H        -1.061099         2.721849        -0.042653
 H        -1.911118         1.270682        -0.669288
 H        -3.493661         2.803089         0.713441
 H        -1.380924         2.092841         4.055287
 H         0.310717         2.499051         1.908534
 H         0.348428         1.021143         2.926855
 H        -3.497096         0.918326         3.038291
 H        -1.411590        -0.752648         2.407581
 H        -2.623026        -0.595510         0.988000
