19
Iteration:  3712
 O         0.059826        -0.152968         0.141574
 C        -0.795808         0.728889         1.045572
 C        -1.465888         1.792754         0.180787
 C        -2.639843         2.264728         1.262157
 O        -2.074130         3.209204         2.229589
 C        -1.524837         2.060076         3.046855
 C        -0.188340         1.538203         2.182428
 C        -2.599201         1.111455         2.407237
 C        -1.970844         0.007871         1.776581
 H         0.757795        -0.544516         0.703070
 H        -0.854421         2.623481        -0.063015
 H        -1.897739         1.521788        -0.822019
 H        -3.610449         2.677249         1.036719
 H        -1.537465         2.489108         4.115254
 H         0.288253         2.520980         1.876059
 H         0.555356         1.170679         2.913219
 H        -3.500364         1.041195         3.073289
 H        -1.562933        -0.694812         2.435674
 H        -2.626488        -0.479016         1.092267
