19
Iteration:  1431charge 0 multiplicity 1
 O         0.225839        -0.053618         0.426070
 C        -0.790931         0.758017         1.043947
 C        -1.624596         1.786020         0.220159
 C        -2.677808         2.270354         1.185708
 O        -2.029429         3.226127         2.238216
 C        -1.487274         2.113316         2.922453
 C        -0.244690         1.339177         2.290324
 C        -2.691720         1.228052         2.257598
 C        -1.916162        -0.111755         1.734683
 H         0.559811         0.328169        -0.390516
 H        -0.929453         2.491413        -0.141114
 H        -2.263332         1.258036        -0.619981
 H        -3.501063         2.756136         0.700005
 H        -1.322049         2.401733         3.972906
 H         0.394863         2.088548         1.911508
 H         0.289995         0.658991         2.893165
 H        -3.693806         1.228913         2.805104
 H        -1.393815        -0.590573         2.565996
 H        -2.514161        -0.701454         0.950859
