19
Iteration:  2157
 O         0.099976        -0.196996         0.310221
 C        -0.757888         0.750889         1.064033
 C        -1.718284         1.718299         0.207203
 C        -2.758949         2.218401         1.300782
 O        -2.111181         3.286078         2.116634
 C        -1.431095         2.164728         2.866040
 C        -0.183295         1.593569         2.171258
 C        -2.590376         1.127444         2.415850
 C        -1.780406        -0.044360         1.833109
 H         1.034200        -0.062755         0.597226
 H        -1.311391         2.687353        -0.338501
 H        -2.339547         1.275251        -0.582944
 H        -3.753892         2.532120         0.941973
 H        -1.399018         2.325021         3.999161
 H         0.603769         2.391010         1.719431
 H         0.385664         0.940330         2.893231
 H        -3.263467         0.869535         3.181181
 H        -1.257799        -0.782585         2.465575
 H        -2.312768        -0.668345         1.116660
