19
Iteration:  1754
 O         0.147418        -0.000087         0.234212
 C        -0.835739         0.746890         1.059044
 C        -1.564039         1.693845         0.222706
 C        -2.627383         2.202607         1.262005
 O        -1.999432         3.213392         2.126390
 C        -1.533286         2.096792         2.952094
 C        -0.231482         1.586642         2.328368
 C        -2.625557         1.169471         2.341940
 C        -1.895380        -0.075258         1.808401
 H        -0.247736        -0.887031         0.084141
 H        -0.901334         2.464802        -0.341549
 H        -1.932052         1.074311        -0.583769
 H        -3.624945         2.468730         0.824260
 H        -1.501176         2.382596         4.053149
 H         0.168790         2.560342         1.931782
 H         0.505394         1.063186         2.890085
 H        -3.498467         1.006773         3.013302
 H        -1.412399        -0.690284         2.678518
 H        -2.594123        -0.621636         1.109076
