19
Iteration:  4400
 O         0.104656        -0.004503         0.309708
 C        -0.876027         0.774591         1.030660
 C        -1.708624         1.789438         0.152187
 C        -2.596801         2.281475         1.301193
 O        -1.954817         3.212770         2.274732
 C        -1.427256         2.002202         2.994086
 C        -0.187829         1.491202         2.225486
 C        -2.686704         1.133044         2.292592
 C        -1.910237        -0.081665         1.693986
 H         0.989888         0.135498         0.657128
 H        -1.203168         2.610991        -0.411087
 H        -2.185427         1.106556        -0.558343
 H        -3.456024         2.740850         0.851832
 H        -1.451841         2.113472         4.126451
 H         0.542837         2.350589         1.787220
 H         0.368915         0.620775         2.654639
 H        -3.603954         0.995643         2.873405
 H        -1.565006        -0.713646         2.534109
 H        -2.543072        -0.693115         0.979135
