19
Iteration:  4071
 O         0.088183        -0.051438         0.361201
 C        -0.808612         0.723452         1.010195
 C        -1.706698         1.855057         0.201991
 C        -2.616715         2.347559         1.335047
 O        -1.885087         3.222844         2.211029
 C        -1.479291         2.008255         3.005400
 C        -0.265639         1.409055         2.255068
 C        -2.600403         1.089934         2.375741
 C        -1.937230        -0.065957         1.547138
 H         0.943037         0.431984         0.275962
 H        -1.113369         2.632958        -0.197524
 H        -2.340384         1.329485        -0.633791
 H        -3.463011         2.677109         0.783958
 H        -1.476260         2.270145         4.069875
 H         0.399403         2.236239         1.873903
 H         0.270381         0.777221         2.929754
 H        -3.522196         0.860072         2.928269
 H        -1.716910        -0.763706         2.382885
 H        -2.681393        -0.325517         0.793741
