19
Iteration:  3891
 O         0.084975         0.004368         0.257882
 C        -0.797174         0.753755         1.033285
 C        -1.696098         1.782709         0.194411
 C        -2.613935         2.278593         1.324294
 O        -1.843330         3.210682         2.166987
 C        -1.518211         2.092817         2.891766
 C        -0.265306         1.454057         2.342640
 C        -2.619769         1.110699         2.395462
 C        -1.925548        -0.095779         1.679949
 H         0.933048         0.421146         0.063848
 H        -1.116529         2.663877        -0.311079
 H        -2.382305         1.247565        -0.466985
 H        -3.699646         2.612368         1.116120
 H        -1.486116         2.285784         3.959004
 H         0.525745         2.197947         2.389053
 H        -0.030065         0.510179         2.971827
 H        -3.627563         0.898603         2.889156
 H        -1.552974        -0.863476         2.323655
 H        -2.620537        -0.653938         1.047828
