19
Iteration:  1618
 O         0.203786        -0.017752         0.416021
 C        -0.785738         0.668853         1.122814
 C        -1.605460         1.723938         0.293925
 C        -2.691512         2.220832         1.259191
 O        -1.975970         3.203856         2.149680
 C        -1.498700         2.090592         2.867206
 C        -0.197906         1.566547         2.173753
 C        -2.643915         1.161543         2.366234
 C        -1.992940        -0.059413         1.712667
 H         0.270097         0.249931        -0.507218
 H        -0.978053         2.464588        -0.019392
 H        -1.984801         1.203713        -0.593512
 H        -3.678328         2.510292         0.969508
 H        -1.262770         2.330011         3.881734
 H         0.362059         2.394292         1.787024
 H         0.323218         1.023947         2.986202
 H        -3.585483         0.974645         2.845849
 H        -1.836795        -0.961136         2.330760
 H        -2.703352        -0.363572         0.852655
