19
Iteration:  3183charge 0 multiplicity 1
 O        -0.026565        -0.143284         0.238380
 C        -0.829486         0.772687         1.001428
 C        -1.535805         1.752573         0.197740
 C        -2.656750         2.317951         1.295615
 O        -2.087443         3.266570         2.221381
 C        -1.500381         2.084958         2.916643
 C        -0.190310         1.559719         2.255831
 C        -2.580621         1.110101         2.390491
 C        -1.812541        -0.106404         1.727778
 H         0.640664        -0.489743         0.844120
 H        -0.830502         2.567313        -0.111168
 H        -2.167559         1.385085        -0.513767
 H        -3.518624         2.839065         0.714759
 H        -1.343636         2.310935         4.000586
 H         0.549694         2.311945         2.085539
 H         0.432970         0.971098         2.985513
 H        -3.435670         0.916157         2.968304
 H        -1.323394        -0.749032         2.440976
 H        -2.349547        -0.653333         0.922683
