19
Iteration:  4341charge 0 multiplicity 1
 O         0.093442        -0.049481         0.252840
 C        -0.814744         0.727337         1.071661
 C        -1.562681         1.843021         0.276370
 C        -2.660499         2.289824         1.227342
 O        -2.124252         3.193993         2.245629
 C        -1.402957         2.066610         2.892883
 C        -0.178930         1.419223         2.265789
 C        -2.553316         1.133436         2.400800
 C        -1.937758        -0.056841         1.715733
 H         0.191625         0.409923        -0.602592
 H        -0.893995         2.661348         0.007281
 H        -1.963903         1.353188        -0.693566
 H        -3.563039         2.732424         0.657294
 H        -1.406844         2.276240         3.962629
 H         0.623226         2.036958         2.052075
 H         0.147085         0.712545         2.988171
 H        -3.399433         1.078046         3.156188
 H        -1.512087        -0.884498         2.325474
 H        -2.829397        -0.481711         1.094986
