19
Iteration:  1542charge 0 multiplicity 1
 O         0.155196        -0.017890         0.361682
 C        -0.755017         0.763742         1.158654
 C        -1.614783         1.809997         0.217822
 C        -2.716468         2.166778         1.246995
 O        -2.014013         3.186163         2.137508
 C        -1.460153         2.087923         2.945120
 C        -0.180159         1.581534         2.295793
 C        -2.551195         1.143441         2.291688
 C        -2.008221        -0.072901         1.662481
 H        -0.118121        -0.957042         0.466106
 H        -1.014843         2.630646        -0.078579
 H        -1.872000         1.259613        -0.738665
 H        -3.595976         2.562980         0.855291
 H        -1.437481         2.247958         4.006941
 H         0.378997         2.351129         1.871004
 H         0.375561         1.032070         3.018182
 H        -3.441995         1.021968         2.900654
 H        -1.915252        -0.979914         2.312643
 H        -2.609107        -0.342104         0.704534
