19
Iteration:   302
 O         0.207827         0.161456         0.249306
 C        -0.832155         0.730688         1.040485
 C        -1.587420         1.706702         0.239562
 C        -2.530159         2.329908         1.240176
 O        -1.911471         3.257660         2.230520
 C        -1.597795         1.973958         2.985237
 C        -0.292777         1.341319         2.354889
 C        -2.687869         1.190725         2.221430
 C        -1.986928        -0.064884         1.704621
 H         0.365708        -0.765294         0.441895
 H        -0.866305         2.539015        -0.122463
 H        -2.075093         1.390235        -0.691025
 H        -3.367875         2.778149         0.672587
 H        -1.811838         1.879657         4.036547
 H         0.348591         2.160440         2.084355
 H         0.002997         0.562576         3.055796
 H        -3.505166         1.064297         2.844159
 H        -1.552181        -0.636556         2.547228
 H        -2.522133        -0.884574         1.139549
