19
Iteration:   735
 O         0.080037        -0.054079         0.276934
 C        -0.777365         0.697353         1.055332
 C        -1.458667         1.884911         0.249818
 C        -2.544590         2.245374         1.216196
 O        -2.089171         3.184098         2.250648
 C        -1.554873         2.102043         2.957086
 C        -0.199771         1.561473         2.375788
 C        -2.618486         1.102039         2.282901
 C        -1.935922        -0.035580         1.690435
 H        -0.281356        -0.942926         0.244520
 H        -0.744474         2.491859        -0.266076
 H        -2.049229         1.366546        -0.686510
 H        -3.431875         2.604918         0.605597
 H        -1.665140         2.353223         4.059775
 H         0.567111         2.253977         2.019252
 H         0.228892         0.775425         2.963804
 H        -3.626703         0.895339         2.713147
 H        -1.642084        -0.957122         2.256318
 H        -2.558714        -0.325424         0.850344
