19
Iteration:  4350charge 0 multiplicity 1
 O         0.034146        -0.073493         0.257753
 C        -0.795181         0.679767         1.012792
 C        -1.543070         1.845974         0.337385
 C        -2.657280         2.315803         1.256338
 O        -2.130730         3.227791         2.233290
 C        -1.508424         2.086109         2.886273
 C        -0.088713         1.447710         2.263808
 C        -2.548484         1.133956         2.409700
 C        -1.923347        -0.101100         1.697988
 H         0.368769         0.417788        -0.519472
 H        -0.966847         2.798342         0.083115
 H        -1.923971         1.398336        -0.625303
 H        -3.644939         2.667528         0.800260
 H        -1.178647         2.282710         3.911461
 H         0.698117         2.057415         1.984327
 H         0.278566         0.783409         3.105400
 H        -3.523692         0.932749         2.823415
 H        -1.616176        -0.880903         2.424929
 H        -2.606616        -0.546780         0.914383
