19
Iteration:   227charge 0 multiplicity 1
 O         0.097317        -0.110895         0.226177
 C        -0.802044         0.725412         1.041163
 C        -1.433294         1.821585         0.308461
 C        -2.527646         2.345981         1.237831
 O        -2.144854         3.196053         2.310169
 C        -1.551920         2.056659         2.943925
 C        -0.184514         1.426920         2.297629
 C        -2.726043         1.184197         2.252926
 C        -1.992871        -0.064396         1.639377
 H         1.062798        -0.041455         0.505511
 H        -0.714750         2.677147         0.026746
 H        -1.886854         1.639658        -0.603268
 H        -3.261304         2.895714         0.644782
 H        -1.373385         2.313933         3.982650
 H         0.529564         2.288988         2.198202
 H         0.443731         0.621608         2.885747
 H        -3.661245         1.071695         2.714632
 H        -1.638582        -0.656727         2.482683
 H        -2.560862        -0.852735         1.049380
