19
Iteration:  3783
 O         0.181386         0.172381         0.171599
 C        -0.850093         0.680238         1.102560
 C        -1.677678         1.751056         0.233258
 C        -2.603992         2.246893         1.327245
 O        -1.827551         3.262687         2.041649
 C        -1.510470         2.086732         2.970009
 C        -0.274683         1.446270         2.311796
 C        -2.631251         1.132901         2.414203
 C        -2.023271        -0.176516         1.747044
 H         0.578301        -0.612114         0.583970
 H        -1.050663         2.544475        -0.321859
 H        -2.091150         1.209446        -0.621991
 H        -3.640030         2.677998         1.123845
 H        -1.606967         2.222891         4.019690
 H         0.460706         2.166905         2.010533
 H         0.311378         0.755611         2.860530
 H        -3.545023         0.917140         3.034291
 H        -1.738210        -0.937163         2.580715
 H        -2.902705        -0.623799         1.160624
