19
Iteration:  3945charge 0 multiplicity 1
 O         0.171668         0.000568         0.317692
 C        -0.815646         0.729244         1.031480
 C        -1.549926         1.800651         0.218324
 C        -2.606498         2.284367         1.284703
 O        -1.965646         3.240601         2.197637
 C        -1.455174         1.960933         3.018640
 C        -0.253460         1.484437         2.185828
 C        -2.674142         1.180994         2.403287
 C        -2.027122        -0.115034         1.705651
 H        -0.087114        -0.079602        -0.617649
 H        -1.010826         2.779191        -0.095232
 H        -2.073029         1.448429        -0.642963
 H        -3.579391         2.720650         0.838044
 H        -1.369000         2.090891         4.104664
 H         0.454551         2.291655         2.020946
 H         0.506816         0.754660         2.715433
 H        -3.607417         0.961700         3.018889
 H        -1.679557        -0.841807         2.387052
 H        -2.690865        -0.609522         0.982886
