19
Iteration:  4955
 O         0.196455         0.088158         0.385270
 C        -0.839956         0.697193         1.013672
 C        -1.782018         1.807358         0.246734
 C        -2.637589         2.276190         1.316738
 O        -1.769788         3.162316         2.134929
 C        -1.522665         1.980963         2.957759
 C        -0.240390         1.484947         2.295834
 C        -2.647425         1.134626         2.308859
 C        -1.967466        -0.131186         1.681265
 H         0.165322         0.093934        -0.575426
 H        -1.280785         2.642327        -0.347194
 H        -2.506654         1.426342        -0.451250
 H        -3.547318         2.962259         1.158733
 H        -1.508086         2.214366         4.031162
 H         0.398939         2.272613         1.907162
 H         0.400038         0.852399         2.894536
 H        -3.531386         1.107507         2.906353
 H        -1.603880        -0.717772         2.516671
 H        -2.579362        -0.585751         0.916372
