19
Iteration:   411charge 0 multiplicity 1
 O         0.162794         0.062061         0.331438
 C        -0.810635         0.762770         1.078364
 C        -1.572657         1.780914         0.279941
 C        -2.607132         2.324085         1.210055
 O        -1.835614         3.156906         2.157501
 C        -1.570324         1.984736         2.956036
 C        -0.230464         1.414187         2.454589
 C        -2.707800         1.143896         2.285959
 C        -2.067978        -0.099123         1.561980
 H         0.454815         0.814785        -0.218741
 H        -0.875264         2.653408        -0.088457
 H        -2.068204         1.291277        -0.622375
 H        -3.432401         2.819719         0.649252
 H        -1.716843         2.219606         4.012249
 H         0.671727         2.048166         2.539344
 H         0.126468         0.712024         3.242962
 H        -3.589570         0.967412         2.875406
 H        -1.736686        -0.909274         2.222134
 H        -2.688324        -0.580087         0.769322
