19
Iteration:  2110
 O         0.190917         0.133244         0.225484
 C        -0.804279         0.674973         1.091076
 C        -1.728690         1.532142         0.225087
 C        -2.688367         2.233673         1.242202
 O        -2.042134         3.220312         2.133795
 C        -1.459015         2.144055         2.886034
 C        -0.183202         1.563952         2.131666
 C        -2.554009         1.182332         2.449236
 C        -1.919363        -0.078402         1.905617
 H         0.489149        -0.686732         0.636909
 H        -1.111760         2.213515        -0.324741
 H        -2.234283         0.963445        -0.570645
 H        -3.618257         2.579790         0.760668
 H        -1.317551         2.524285         3.934457
 H         0.465607         2.433470         1.828512
 H         0.386207         0.930104         2.964265
 H        -3.577629         1.067880         3.029514
 H        -1.624159        -0.791764         2.712396
 H        -2.621340        -0.633408         1.228693
