19
Iteration:  1187charge 0 multiplicity 1
 O         0.333778         0.100552         0.329153
 C        -0.893918         0.693503         1.143162
 C        -1.587018         1.740741         0.329317
 C        -2.662826         2.250277         1.243204
 O        -1.969262         3.211987         2.111769
 C        -1.537483         2.111569         2.898199
 C        -0.171812         1.442175         2.279590
 C        -2.663248         1.197229         2.334204
 C        -2.083867        -0.162345         1.718038
 H        -0.016180        -0.303354        -0.482436
 H        -0.973872         2.542286        -0.134788
 H        -1.978715         1.270460        -0.607310
 H        -3.609746         2.734400         0.852460
 H        -1.482222         2.297246         3.966313
 H         0.649992         2.054607         1.899781
 H         0.203833         0.734359         2.929544
 H        -3.434214         1.278856         3.018947
 H        -1.850644        -0.981888         2.391959
 H        -2.559747        -0.618675         0.893282
