19
Iteration:   180charge 0 multiplicity 1
 O         0.209862        -0.025389         0.448274
 C        -0.827768         0.821630         1.011328
 C        -1.572590         1.856166         0.231791
 C        -2.605941         2.310845         1.250555
 O        -1.930683         3.171015         2.169717
 C        -1.566283         1.932983         3.039941
 C        -0.230573         1.373705         2.343758
 C        -2.741481         1.177841         2.280794
 C        -1.956065         0.009803         1.597054
 H         0.274359         0.013594        -0.499051
 H        -1.012162         2.676783        -0.210669
 H        -1.967042         1.334541        -0.648090
 H        -3.516592         2.795436         0.790856
 H        -1.651701         2.286353         4.085197
 H         0.736865         1.906766         2.167484
 H         0.147216         0.433312         2.820163
 H        -3.780941         1.086422         2.677818
 H        -1.587958        -0.851293         2.194260
 H        -2.524276        -0.524435         0.809068
