19
Iteration:  4281
 O         0.204095         0.135132         0.288914
 C        -0.829532         0.753988         1.015211
 C        -1.744072         1.739177         0.198798
 C        -2.627662         2.269511         1.272532
 O        -1.905301         3.196829         2.259749
 C        -1.430137         1.985227         2.975974
 C        -0.187596         1.441647         2.263150
 C        -2.688969         1.151048         2.304813
 C        -1.991069        -0.043304         1.692466
 H        -0.032631        -0.823828         0.273937
 H        -1.151003         2.575153        -0.327248
 H        -2.245959         1.140988        -0.544446
 H        -3.499680         2.789292         0.985062
 H        -1.341813         2.144147         4.099724
 H         0.674304         2.233469         2.013414
 H         0.305438         0.592653         2.911441
 H        -3.696848         1.049944         2.722221
 H        -1.459217        -0.752449         2.408448
 H        -2.766022        -0.537068         1.129534
