19
Iteration:  2764charge 0 multiplicity 1
 O         0.121629        -0.089377         0.297906
 C        -0.852865         0.705442         1.049711
 C        -1.612164         1.742070         0.195289
 C        -2.583385         2.265620         1.271910
 O        -1.961686         3.135199         2.154684
 C        -1.480252         2.075769         2.981792
 C        -0.205927         1.575389         2.394428
 C        -2.589773         1.186189         2.423125
 C        -2.018016        -0.021789         1.636325
 H         0.341095         0.409817        -0.497009
 H        -0.990706         2.503338        -0.387050
 H        -2.165382         1.129121        -0.558553
 H        -3.576033         2.744670         0.835257
 H        -1.449850         2.314037         4.030381
 H         0.463594         2.373833         2.200499
 H         0.407680         0.906531         2.967573
 H        -3.555842         1.070822         2.864490
 H        -1.610170        -0.939028         2.146802
 H        -2.740511        -0.316193         0.858344
