19
Iteration:  4577charge 0 multiplicity 1
 O         0.048239         0.177889         0.130312
 C        -0.858630         0.699936         1.105678
 C        -1.581660         1.668501         0.248981
 C        -2.623767         2.337985         1.226443
 O        -1.915326         3.201895         2.226425
 C        -1.485549         2.021678         2.909855
 C        -0.226734         1.430350         2.304262
 C        -2.613785         1.131553         2.307342
 C        -1.968759        -0.120830         1.835173
 H         0.882538        -0.061881         0.557093
 H        -0.956167         2.460668        -0.249913
 H        -2.189125         1.209933        -0.522332
 H        -3.538521         2.768559         0.850569
 H        -1.288798         2.181095         4.052214
 H         0.423399         2.410586         2.135605
 H         0.240417         0.672500         2.931910
 H        -3.589761         1.077260         2.804983
 H        -1.700710        -0.967485         2.622912
 H        -2.533705        -0.571345         0.976114
