19
Iteration:  2317
 O         0.250937        -0.123120         0.329312
 C        -0.791647         0.704616         1.020206
 C        -1.687032         1.727507         0.191832
 C        -2.744463         2.266726         1.276642
 O        -2.039130         3.291831         2.127219
 C        -1.463426         2.151819         2.905814
 C        -0.225348         1.545801         2.277226
 C        -2.607341         1.137286         2.446886
 C        -1.870391        -0.079841         1.762493
 H        -0.034656        -0.091150        -0.620074
 H        -1.159713         2.534215        -0.312949
 H        -2.227385         1.090236        -0.617962
 H        -3.690134         2.704786         0.891281
 H        -1.438941         2.344301         3.982278
 H         0.480563         2.237767         2.045490
 H         0.356948         0.877172         2.903238
 H        -3.394773         0.796307         3.192954
 H        -1.388633        -0.685942         2.565785
 H        -2.639427        -0.670404         1.219900
