19
Iteration:  4301charge 0 multiplicity 1
 O         0.235015         0.129712         0.349698
 C        -0.873797         0.774277         1.062333
 C        -1.743415         1.737937         0.233922
 C        -2.660729         2.406673         1.296947
 O        -1.812240         3.151831         2.183492
 C        -1.499543         1.969980         2.913138
 C        -0.260681         1.447619         2.303831
 C        -2.642513         1.115198         2.304231
 C        -1.979904        -0.114056         1.691628
 H        -0.303618        -0.432801        -0.246205
 H        -1.156539         2.402600        -0.365083
 H        -2.485581         1.202119        -0.363946
 H        -3.525458         2.942316         0.953644
 H        -1.443600         2.020062         3.996826
 H         0.381110         2.349998         1.864844
 H         0.531803         0.789886         2.730667
 H        -3.292475         0.917556         3.187619
 H        -1.600889        -0.869654         2.374249
 H        -2.361206        -0.590124         0.795022
