19
Iteration:   332charge 0 multiplicity 1
 O         0.103120        -0.079689         0.273509
 C        -0.749123         0.797404         1.080690
 C        -1.489718         1.914309         0.244236
 C        -2.618131         2.270506         1.215013
 O        -2.076177         3.171000         2.222053
 C        -1.497190         2.034994         2.948430
 C        -0.181387         1.450139         2.326146
 C        -2.637274         1.132872         2.324279
 C        -2.054343        -0.074170         1.614285
 H         0.651072        -0.565471         0.927334
 H        -0.840673         2.816413         0.281034
 H        -1.773061         1.713031        -0.867621
 H        -3.504894         2.707609         0.699577
 H        -1.552539         2.159416         4.055770
 H         0.529798         2.276566         2.107331
 H         0.181936         0.665347         3.091707
 H        -3.490016         1.061692         2.993375
 H        -1.739485        -0.977898         2.148086
 H        -2.600026        -0.350429         0.719314
