19
Iteration:   648charge 0 multiplicity 1
 O         0.199702        -0.054400         0.318660
 C        -0.768403         0.710181         1.083259
 C        -1.541337         1.819787         0.274913
 C        -2.601214         2.347847         1.248143
 O        -1.991367         3.204511         2.204923
 C        -1.463486         2.014610         2.991635
 C        -0.242904         1.446312         2.420514
 C        -2.753331         1.144495         2.226758
 C        -1.970059        -0.051466         1.598348
 H        -0.063289        -0.006753        -0.618947
 H        -1.148441         2.544045        -0.370820
 H        -2.161645         1.201807        -0.469355
 H        -3.505792         2.817451         0.749229
 H        -1.535739         2.261993         4.074064
 H         0.386104         2.321933         2.269014
 H         0.326963         0.844354         3.073493
 H        -3.670986         1.164474         2.798985
 H        -1.766251        -0.894107         2.327000
 H        -2.524811        -0.558712         0.800163
