19
Iteration:  2936charge 0 multiplicity 1
 O         0.182974        -0.178601         0.309661
 C        -0.800936         0.755372         0.955159
 C        -1.593892         1.931508         0.116852
 C        -2.667357         2.290671         1.288589
 O        -2.061051         3.214573         2.249211
 C        -1.451735         2.040518         2.960246
 C        -0.224342         1.553041         2.200744
 C        -2.607709         1.146274         2.386356
 C        -1.891773        -0.068423         1.783034
 H        -0.271540        -1.008437         0.550989
 H        -1.140225         2.771414        -0.281435
 H        -2.308837         1.552283        -0.636185
 H        -3.519869         2.643379         0.884595
 H        -1.485245         2.202706         4.023711
 H         0.331751         2.556277         2.001261
 H         0.312901         0.740983         2.819850
 H        -3.501207         1.010495         2.987031
 H        -1.501524        -0.804685         2.455653
 H        -2.435686        -0.744269         1.085477
