19
Iteration:   983charge 0 multiplicity 1
 O         0.091366        -0.093680         0.429560
 C        -0.830540         0.799323         0.971129
 C        -1.556450         1.882291         0.140879
 C        -2.662064         2.250270         1.261422
 O        -2.019453         3.200019         2.180184
 C        -1.512205         2.062914         2.905938
 C        -0.273410         1.448476         2.237694
 C        -2.586215         1.058628         2.372710
 C        -1.891334        -0.029258         1.715200
 H         1.006354         0.187080         0.342429
 H        -1.035602         2.833026         0.061564
 H        -2.124813         1.433585        -0.708822
 H        -3.572867         2.645809         0.869679
 H        -1.458820         2.464535         3.917627
 H         0.597027         2.054213         2.062264
 H         0.133803         0.813110         2.946975
 H        -3.418934         0.998299         3.045649
 H        -1.562840        -0.714132         2.474059
 H        -2.401546        -0.811349         1.096872
