19
Iteration:   352
 O         0.045810        -0.133761         0.313194
 C        -0.749084         0.738081         1.075435
 C        -1.433788         1.837294         0.313561
 C        -2.616034         2.322945         1.288071
 O        -2.069761         3.214155         2.279436
 C        -1.548072         1.987845         2.972384
 C        -0.159394         1.518961         2.293752
 C        -2.628596         1.120751         2.271297
 C        -1.995596         0.021344         1.475470
 H         0.890600        -0.144689         0.838707
 H        -0.839819         2.531645        -0.172478
 H        -1.838559         1.226641        -0.522214
 H        -3.612676         2.409472         0.853061
 H        -1.316330         2.197056         4.042244
 H         0.116293         2.455274         1.864975
 H         0.271215         0.959808         3.110736
 H        -3.650857         0.895157         2.701993
 H        -1.972295        -0.896258         2.080383
 H        -2.528716        -0.206747         0.569691
