19
Iteration:    14
 O         0.233153         0.108763         0.305616
 C        -0.829914         0.733736         1.088513
 C        -1.516190         2.034513         0.141245
 C        -2.570016         2.344301         1.174896
 O        -1.863089         3.150778         2.236145
 C        -1.577212         1.971662         3.071838
 C        -0.317871         1.208132         2.449257
 C        -2.773831         1.167803         2.153417
 C        -2.020426        -0.062297         1.621968
 H         0.280221        -0.876441         0.548962
 H        -1.053108         2.789403        -0.270769
 H        -1.995872         1.463202        -0.680019
 H        -3.513552         2.801181         0.823044
 H        -1.544074         2.284685         4.129836
 H         0.476049         1.933220         2.169993
 H         0.138844         0.322580         3.089432
 H        -3.776673         1.079261         2.568698
 H        -1.653690        -0.525887         2.566239
 H        -2.434730        -0.907604         1.096144
