19
Iteration:  4842charge 0 multiplicity 1
 O         0.332695         0.086565         0.325443
 C        -0.805698         0.729618         1.017241
 C        -1.761023         1.758343         0.267696
 C        -2.634513         2.351687         1.290178
 O        -1.855911         3.214703         2.215365
 C        -1.512939         2.059496         2.968401
 C        -0.266408         1.421171         2.222821
 C        -2.701113         1.073100         2.332227
 C        -1.992997        -0.083940         1.650765
 H        -0.064165        -0.669733        -0.151410
 H        -1.338950         2.531774        -0.290422
 H        -2.513608         1.179962        -0.290813
 H        -3.547394         2.898268         0.995945
 H        -1.313424         2.106559         4.053334
 H         0.553836         2.116289         1.998946
 H         0.291960         0.723149         2.883896
 H        -3.700836         1.142442         2.873224
 H        -1.587442        -0.759649         2.394250
 H        -2.725601        -0.514726         1.015428
