19
Iteration:  3694
 O         0.031098        -0.053367         0.220234
 C        -0.812729         0.698972         1.054893
 C        -1.583154         1.757261         0.283906
 C        -2.613910         2.258228         1.250075
 O        -2.113265         3.259291         2.283947
 C        -1.428449         2.084595         2.886235
 C        -0.128160         1.538460         2.265473
 C        -2.570238         1.172546         2.316996
 C        -1.967352        -0.102670         1.750142
 H         0.853001        -0.424118         0.585227
 H        -0.993723         2.642679        -0.252667
 H        -2.119332         1.370548        -0.593654
 H        -3.521061         2.557160         0.654853
 H        -1.350860         2.190246         3.969853
 H         0.585468         2.212346         1.852625
 H         0.273704         0.760711         2.911118
 H        -3.488381         1.229387         2.828517
 H        -1.544215        -0.862648         2.499755
 H        -2.568278        -0.575321         0.912361
