19
Iteration:  2277charge 0 multiplicity 1
 O         0.041840        -0.105340         0.241120
 C        -0.772900         0.772646         1.082812
 C        -1.602218         1.702571         0.227427
 C        -2.744191         2.213868         1.270225
 O        -2.062700         3.205986         2.131476
 C        -1.476689         2.076064         2.881300
 C        -0.124267         1.602090         2.192711
 C        -2.625695         1.134343         2.431430
 C        -1.889428        -0.033590         1.853422
 H         0.951629        -0.090466         0.566180
 H        -1.038448         2.631815        -0.129724
 H        -1.765194         1.096448        -0.603674
 H        -3.552308         2.683135         0.772023
 H        -1.227326         2.389310         3.962039
 H         0.160154         2.624832         1.617133
 H         0.541789         1.168770         2.997909
 H        -3.448809         1.040589         3.036681
 H        -1.416674        -0.836345         2.478804
 H        -2.485923        -0.658108         1.191075
