19
Iteration:  3171
 O         0.056849        -0.119112         0.188673
 C        -0.768081         0.711688         1.013882
 C        -1.642755         1.828341         0.185919
 C        -2.576332         2.268950         1.273143
 O        -2.052743         3.297280         2.190815
 C        -1.533157         2.084081         2.997385
 C        -0.225756         1.525905         2.255364
 C        -2.571904         1.107548         2.376482
 C        -1.849768        -0.033026         1.792178
 H         0.585532        -0.691397         0.822522
 H        -1.052185         2.679280        -0.355257
 H        -1.987171         1.344005        -0.640391
 H        -3.675016         2.479004         0.943551
 H        -1.447000         2.253223         4.087631
 H         0.412663         2.282300         1.911674
 H         0.119114         0.653187         2.897130
 H        -3.481537         0.941812         2.877600
 H        -1.378718        -0.743625         2.484536
 H        -2.579056        -0.682134         1.285945
