19
Iteration:   162
 O         0.341521         0.126616         0.443132
 C        -0.780318         0.701746         0.999222
 C        -1.605579         1.854639         0.173878
 C        -2.647938         2.346889         1.227953
 O        -1.929949         3.207636         2.239117
 C        -1.484147         2.001534         2.848615
 C        -0.336980         1.250347         2.396276
 C        -2.634432         1.161259         2.278248
 C        -2.128136        -0.060463         1.648407
 H         0.019141        -0.299709        -0.352179
 H        -0.835782         2.697434        -0.106657
 H        -2.070565         1.484931        -0.732970
 H        -3.565433         2.797294         0.867434
 H        -1.404706         2.137163         3.924286
 H         0.474520         2.006719         2.281216
 H        -0.152804         0.461188         3.201382
 H        -3.404043         1.049988         2.980943
 H        -1.856393        -0.849225         2.356283
 H        -2.795573        -0.617216         0.923435
