19
Iteration:   474charge 0 multiplicity 1
 O         0.075742        -0.185748         0.365614
 C        -0.756896         0.688346         1.057959
 C        -1.502509         1.958575         0.216619
 C        -2.553315         2.399534         1.159667
 O        -1.995472         3.208752         2.385398
 C        -1.666102         1.962862         2.980173
 C        -0.177412         1.487590         2.236221
 C        -2.741644         1.138954         2.169504
 C        -1.938446        -0.112675         1.698987
 H         0.850964         0.394989         0.113356
 H        -0.818994         2.695608        -0.091348
 H        -2.004484         1.678274        -0.722959
 H        -3.386471         3.084577         0.760775
 H        -1.592327         1.909307         4.085456
 H         0.221243         2.467975         1.887228
 H         0.514160         0.744074         2.837078
 H        -3.680616         0.958969         2.584074
 H        -1.376939        -0.635203         2.546920
 H        -2.410154        -0.673847         0.888225
