19
Iteration:  4620
 O         0.072127        -0.054803         0.337050
 C        -0.825812         0.810191         0.989708
 C        -1.689739         1.863516         0.143503
 C        -2.612263         2.257469         1.265354
 O        -2.042536         3.205765         2.296428
 C        -1.456079         2.009132         2.919145
 C        -0.174571         1.489967         2.208559
 C        -2.606148         1.130128         2.416116
 C        -1.862644        -0.062766         1.640949
 H         0.507879        -0.575528         1.020117
 H        -0.991005         2.656008        -0.245327
 H        -2.001903         1.319976        -0.739913
 H        -3.525743         2.703523         1.044353
 H        -1.371396         2.171310         4.049662
 H         0.633524         2.220635         1.772583
 H         0.128239         0.685447         2.866985
 H        -3.374627         1.103061         3.182761
 H        -1.561589        -1.025384         2.119672
 H        -2.622225        -0.360994         0.918523
