19
Iteration:  2428charge 0 multiplicity 1
 O         0.190494        -0.119063         0.362734
 C        -0.796080         0.716321         1.035741
 C        -1.560368         1.795323         0.190669
 C        -2.644079         2.214689         1.327626
 O        -1.992879         3.210217         2.186600
 C        -1.518211         2.127264         2.887775
 C        -0.231861         1.582722         2.154624
 C        -2.681482         1.141237         2.433051
 C        -1.983745        -0.076744         1.743970
 H         0.065311        -0.224029        -0.586460
 H        -0.899401         2.740591         0.008055
 H        -2.016215         1.287906        -0.696566
 H        -3.582396         2.534263         0.971128
 H        -1.369051         2.306417         4.014686
 H         0.350785         2.406696         1.845659
 H         0.388549         0.891694         2.686672
 H        -3.520506         1.091691         3.030299
 H        -1.481093        -0.462909         2.669509
 H        -2.534912        -0.762728         1.116539
