19
Iteration:  2188
 O         0.099333        -0.036460         0.278564
 C        -0.805749         0.679395         1.127853
 C        -1.648611         1.603013         0.204050
 C        -2.643716         2.194202         1.235330
 O        -2.066575         3.199948         2.132642
 C        -1.413556         2.198131         2.906261
 C        -0.221361         1.630147         2.150371
 C        -2.582314         1.148640         2.404628
 C        -1.892286        -0.071022         1.930451
 H         0.380775         0.641422        -0.355820
 H        -1.054855         2.464664        -0.093396
 H        -2.246714         1.201597        -0.549792
 H        -3.470526         2.480864         0.617390
 H        -1.439501         2.439686         4.020313
 H         0.495636         2.388453         1.648893
 H         0.215764         0.898475         2.939826
 H        -3.424812         1.026607         3.110760
 H        -1.441592        -0.868540         2.545348
 H        -2.477598        -0.602098         1.158275
