19
Iteration:  1759charge 0 multiplicity 1
 O         0.118394         0.022650         0.274606
 C        -0.849845         0.709811         1.108438
 C        -1.536113         1.746902         0.225789
 C        -2.555199         2.198785         1.258724
 O        -2.044904         3.185431         2.141564
 C        -1.543466         2.120164         2.941756
 C        -0.242411         1.567561         2.246536
 C        -2.596612         1.146616         2.358655
 C        -1.908422        -0.064723         1.793773
 H        -0.215584        -0.830922        -0.045143
 H        -0.890803         2.459201        -0.192715
 H        -1.924667         1.029856        -0.600810
 H        -3.474698         2.455566         0.742505
 H        -1.537862         2.478650         3.934519
 H         0.096357         2.448745         1.745616
 H         0.575068         1.031754         2.816796
 H        -3.391834         1.097447         3.075522
 H        -1.496325        -0.611295         2.555937
 H        -2.557983        -0.703459         1.231965
