19
Iteration:  4792
 O         0.087181        -0.046860         0.235034
 C        -0.788887         0.753665         1.070613
 C        -1.564145         1.791681         0.268417
 C        -2.626049         2.280064         1.331491
 O        -1.999774         3.198544         2.158770
 C        -1.491333         2.036819         2.936465
 C        -0.203198         1.489222         2.371611
 C        -2.646933         1.132858         2.346340
 C        -1.920305        -0.091412         1.650495
 H        -0.162339         0.121706        -0.698615
 H        -0.873803         2.674128        -0.063962
 H        -2.200379         1.403945        -0.533905
 H        -3.618510         2.632408         0.937783
 H        -1.409853         2.396885         3.974603
 H         0.511774         2.307423         2.292801
 H         0.355275         0.724412         2.915955
 H        -3.423443         1.173414         3.069694
 H        -1.680999        -0.762619         2.486768
 H        -2.432299        -0.537005         0.740458
