19
Iteration:  2979charge 0 multiplicity 1
 O         0.194419         0.159331         0.233883
 C        -0.770082         0.770121         1.149211
 C        -1.652337         1.733402         0.200316
 C        -2.629688         2.244276         1.177560
 O        -1.943323         3.150762         2.130275
 C        -1.449661         2.037276         2.947364
 C        -0.177818         1.457432         2.312953
 C        -2.638332         1.172249         2.439778
 C        -2.107569        -0.101821         1.776938
 H        -0.156418        -0.664557        -0.184516
 H        -1.176034         2.403309        -0.360826
 H        -2.000556         1.025307        -0.581698
 H        -3.514825         2.623475         0.865192
 H        -1.270897         2.311074         3.989563
 H         0.582687         2.301679         1.953337
 H         0.477164         0.785218         2.970100
 H        -3.496735         1.306927         3.090408
 H        -1.924723        -0.928269         2.425802
 H        -2.852401        -0.591134         1.082946
