19
Iteration:  2437charge 0 multiplicity 1
 O         0.241163        -0.092192         0.368361
 C        -0.801526         0.720664         0.994823
 C        -1.609805         1.757819         0.181060
 C        -2.722736         2.291056         1.324855
 O        -1.996908         3.210071         2.150970
 C        -1.494232         2.047135         2.935138
 C        -0.172722         1.550908         2.194533
 C        -2.688882         1.158941         2.360435
 C        -1.941220        -0.040273         1.820428
 H        -0.247057        -0.490091        -0.361367
 H        -1.063318         2.658133        -0.127235
 H        -2.154259         1.483427        -0.738360
 H        -3.630280         2.786704         0.921897
 H        -1.433213         2.247217         3.995402
 H         0.453144         2.342900         1.910385
 H         0.490220         0.931232         2.859073
 H        -3.555103         1.039852         3.012930
 H        -1.443441        -0.797241         2.447339
 H        -2.573684        -0.643271         1.165132
