19
Iteration:  3308
 O         0.104008        -0.083545         0.258566
 C        -0.843527         0.684391         1.007968
 C        -1.570716         1.824618         0.236354
 C        -2.682989         2.339384         1.233688
 O        -2.109715         3.215603         2.274690
 C        -1.433919         2.075817         2.895651
 C        -0.203724         1.486799         2.227511
 C        -2.578047         1.164855         2.327569
 C        -1.908278        -0.031163         1.766263
 H         0.403116        -0.822737         0.776900
 H        -0.929202         2.506398        -0.223215
 H        -1.996183         1.283765        -0.684943
 H        -3.584456         2.775520         0.847252
 H        -1.142204         2.227223         3.963920
 H         0.608567         2.204247         1.854333
 H         0.382157         0.813886         2.979788
 H        -3.396911         1.115678         3.094505
 H        -1.479806        -0.785787         2.478048
 H        -2.555794        -0.680905         1.163021
