19
Iteration:  3445
 O         0.153482        -0.160933         0.230518
 C        -0.781646         0.720622         0.988571
 C        -1.584973         1.800534         0.280065
 C        -2.667246         2.273199         1.264233
 O        -2.026533         3.273918         2.302196
 C        -1.486984         2.041030         2.906846
 C        -0.176899         1.582346         2.149304
 C        -2.677218         1.109330         2.334573
 C        -1.990120        -0.070606         1.727108
 H         0.430923        -0.592946         1.083286
 H        -0.857786         2.761457         0.035820
 H        -2.136338         1.417208        -0.619819
 H        -3.588301         2.871008         1.020072
 H        -1.216383         2.256776         3.937786
 H         0.529002         2.360247         1.927421
 H         0.393805         1.057246         2.941180
 H        -3.563120         1.313216         2.954254
 H        -1.641147        -0.695624         2.560813
 H        -2.432504        -0.756987         0.945322
