19
Iteration:  2987
 O         0.231262         0.193125         0.220391
 C        -0.782355         0.717617         1.078814
 C        -1.647184         1.635791         0.169899
 C        -2.661895         2.216080         1.204949
 O        -1.869857         3.127795         2.148549
 C        -1.459787         2.056303         2.929623
 C        -0.159860         1.489132         2.353971
 C        -2.661226         1.188424         2.452187
 C        -2.115538        -0.051770         1.812989
 H        -0.321839        -0.436518        -0.311418
 H        -1.027792         2.480674        -0.222369
 H        -2.077034         1.033566        -0.689380
 H        -3.635419         2.751453         0.900105
 H        -1.493774         2.270387         4.052393
 H         0.359450         2.355336         1.969264
 H         0.286032         0.792844         2.997791
 H        -3.669927         1.187144         2.871078
 H        -1.749024        -0.907952         2.424097
 H        -3.011326        -0.394609         1.202950
