19
Iteration:  1247
 O         0.155175        -0.096370         0.390220
 C        -0.769899         0.703780         1.138810
 C        -1.605416         1.815893         0.217879
 C        -2.643186         2.235068         1.200964
 O        -2.020063         3.227986         2.171990
 C        -1.496920         2.038780         2.877342
 C        -0.181341         1.560162         2.355353
 C        -2.642158         1.114091         2.300255
 C        -1.977681        -0.040560         1.684562
 H        -0.003372         0.107506        -0.538150
 H        -1.007366         2.640881         0.001702
 H        -2.089630         1.209500        -0.465722
 H        -3.527357         2.658525         0.790096
 H        -1.504757         2.264204         3.964237
 H         0.364770         2.439839         1.938927
 H         0.623312         0.974571         3.036911
 H        -3.498645         0.904260         3.058012
 H        -1.815229        -0.854555         2.400857
 H        -2.330899        -0.300428         0.647908
