19
Iteration:  4975charge 0 multiplicity 1
 O         0.255813         0.118630         0.313414
 C        -0.886245         0.763357         1.039834
 C        -1.681127         1.741108         0.197879
 C        -2.666260         2.338293         1.270594
 O        -1.916801         3.216992         2.205085
 C        -1.439954         2.025246         2.945850
 C        -0.193614         1.339339         2.242527
 C        -2.680199         1.119965         2.368156
 C        -2.017808        -0.087965         1.746152
 H        -0.105384        -0.146652        -0.569281
 H        -1.028651         2.499788        -0.346659
 H        -2.120278         1.195199        -0.667007
 H        -3.630723         2.920198         0.960030
 H        -1.241977         2.145037         4.023658
 H         0.558898         2.112080         2.157842
 H         0.136865         0.515986         2.925722
 H        -3.537835         1.029345         3.091124
 H        -1.517453        -0.636893         2.532506
 H        -2.576815        -0.589375         0.993779
