19
Iteration:   746charge 0 multiplicity 1
 O         0.095927        -0.088580         0.325463
 C        -0.803242         0.793174         1.053018
 C        -1.451575         1.827403         0.202882
 C        -2.559788         2.319614         1.206444
 O        -2.082412         3.208745         2.250931
 C        -1.572204         1.962041         2.940852
 C        -0.212475         1.551116         2.304269
 C        -2.643547         1.144273         2.248344
 C        -1.886066        -0.076593         1.735134
 H        -0.506831        -0.731328        -0.107250
 H        -0.762196         2.661770         0.056088
 H        -1.947057         1.496308        -0.814919
 H        -3.514294         2.743476         0.766380
 H        -1.394276         2.040890         4.046182
 H         0.427539         2.433602         2.184705
 H         0.258097         0.934429         3.053316
 H        -3.595437         0.939237         2.795117
 H        -1.620292        -0.740230         2.605435
 H        -2.440991        -0.669998         1.028195
