19
Iteration:  4010charge 0 multiplicity 1
 O         0.047023         0.050182         0.177168
 C        -0.819398         0.701583         1.053553
 C        -1.613034         1.830568         0.246223
 C        -2.594640         2.284254         1.290803
 O        -1.903930         3.213513         2.213623
 C        -1.488788         2.015071         2.975195
 C        -0.274525         1.546972         2.310662
 C        -2.616110         1.107663         2.331700
 C        -1.953910        -0.137196         1.685910
 H         0.477351        -0.764291         0.526325
 H        -0.829701         2.601635        -0.133552
 H        -1.990706         1.367851        -0.611255
 H        -3.474916         2.850020         0.815944
 H        -1.250437         2.242271         4.051915
 H         0.473228         2.318214         2.104623
 H         0.203601         0.761915         3.052877
 H        -3.576460         1.056432         2.951407
 H        -1.896619        -0.872677         2.457349
 H        -2.529225        -0.680614         0.923558
