19
Iteration:  4515
 O         0.126049         0.008809         0.341205
 C        -0.874310         0.758028         0.998518
 C        -1.578253         1.824976         0.218812
 C        -2.619538         2.235675         1.261983
 O        -2.065766         3.215445         2.296402
 C        -1.426947         2.023887         2.932079
 C        -0.130857         1.537395         2.206417
 C        -2.596409         1.135818         2.389148
 C        -1.989724        -0.121298         1.618861
 H         0.002756        -0.887692         0.663577
 H        -1.032977         2.652354        -0.126118
 H        -2.138649         1.306284        -0.618386
 H        -3.633316         2.668834         1.000555
 H        -1.234907         2.338325         3.925697
 H         0.472742         2.359669         1.933259
 H         0.733663         0.812473         2.591558
 H        -3.600094         1.062555         2.931638
 H        -1.700527        -0.902121         2.263290
 H        -2.668388        -0.446801         0.852537
