19
Iteration:   897charge 0 multiplicity 1
 O         0.228032        -0.047258         0.426636
 C        -0.778408         0.790180         0.999404
 C        -1.617703         1.873501         0.266604
 C        -2.681887         2.256322         1.278119
 O        -2.013469         3.182409         2.135702
 C        -1.494663         2.037532         2.923947
 C        -0.213010         1.516356         2.268481
 C        -2.636557         1.111900         2.370579
 C        -1.992357        -0.062913         1.624589
 H        -0.128822        -0.933639         0.188023
 H        -0.860837         2.679901        -0.033113
 H        -2.083958         1.416188        -0.725564
 H        -3.663599         2.612727         0.920475
 H        -1.381805         2.371190         4.004532
 H         0.608482         2.270864         2.002073
 H         0.160938         0.613805         2.885878
 H        -3.547911         1.217985         2.997709
 H        -1.519012        -0.810744         2.342453
 H        -2.466212        -0.590031         0.767954
