19
Iteration:  3787
 O         0.145138         0.178610         0.185261
 C        -0.861594         0.659970         1.102739
 C        -1.656248         1.773786         0.220763
 C        -2.633099         2.263596         1.305511
 O        -1.842304         3.249127         2.029176
 C        -1.490719         2.063649         2.995641
 C        -0.240927         1.442062         2.303240
 C        -2.644620         1.136138         2.393443
 C        -1.985919        -0.191759         1.739524
 H         0.574729        -0.564473         0.653509
 H        -1.018533         2.461811        -0.211179
 H        -2.113636         1.217338        -0.634265
 H        -3.586174         2.724424         1.214947
 H        -1.586906         2.303744         4.085821
 H         0.454407         2.303380         1.975641
 H         0.328993         0.729362         3.021893
 H        -3.525594         0.961719         3.070846
 H        -1.795668        -0.881974         2.593384
 H        -2.841311        -0.577684         1.180156
