19
Iteration:  2074
 O         0.071212         0.063290         0.234428
 C        -0.794956         0.780567         1.047974
 C        -1.717760         1.632201         0.200251
 C        -2.754675         2.186292         1.217044
 O        -1.978829         3.191769         2.022378
 C        -1.511470         2.152793         2.907246
 C        -0.151433         1.551712         2.297185
 C        -2.556526         1.158853         2.446080
 C        -1.780169        -0.046146         1.904226
 H         0.237992        -0.783511         0.655908
 H        -1.109996         2.432887        -0.162474
 H        -2.265897         1.068631        -0.583929
 H        -3.814768         2.511470         1.012689
 H        -1.420234         2.499705         3.896967
 H         0.539046         2.354728         2.182959
 H         0.305182         0.650841         2.983371
 H        -3.435914         0.821127         3.021847
 H        -1.304941        -0.771363         2.587555
 H        -2.432576        -0.569283         1.170151
