19
Iteration:  1488
 O         0.077434        -0.007701         0.310540
 C        -0.799217         0.808972         1.089946
 C        -1.591188         1.752023         0.235859
 C        -2.650431         2.288611         1.210036
 O        -1.952069         3.179594         2.147087
 C        -1.552289         1.974357         2.873405
 C        -0.189917         1.502645         2.333151
 C        -2.707396         1.130668         2.282469
 C        -1.900018        -0.015363         1.767581
 H         0.946934        -0.216896         0.704611
 H        -0.923213         2.497815        -0.199642
 H        -2.083574         1.147584        -0.621974
 H        -3.440536         2.793179         0.756326
 H        -1.543814         2.090565         3.943013
 H         0.453890         2.324149         2.179173
 H         0.271476         0.883398         3.061568
 H        -3.652078         1.065826         2.822234
 H        -1.336032        -0.586689         2.508375
 H        -2.447444        -0.769101         1.135267
