19
Iteration:   993charge 0 multiplicity 1
 O         0.115283        -0.211361         0.422184
 C        -0.780768         0.788054         1.030875
 C        -1.596749         1.961366         0.168061
 C        -2.696461         2.288597         1.294707
 O        -2.071937         3.196505         2.173626
 C        -1.528078         2.085904         2.866485
 C        -0.218971         1.472840         2.191713
 C        -2.613162         1.125750         2.403026
 C        -1.869691        -0.060868         1.712120
 H         0.951511         0.252843         0.568808
 H        -0.889744         2.741056        -0.092201
 H        -1.852881         1.568171        -0.821131
 H        -3.696963         2.457253         1.009207
 H        -1.299474         2.185350         3.910334
 H         0.544804         2.231476         2.088761
 H         0.010821         0.592064         2.724272
 H        -3.424440         0.761276         2.955380
 H        -1.369582        -0.708415         2.405562
 H        -2.458162        -0.505228         0.841521
