19
Iteration:  4880
 O         0.125818        -0.061221         0.250517
 C        -0.807090         0.787955         1.041836
 C        -1.550973         1.917958         0.243458
 C        -2.584151         2.214127         1.259915
 O        -2.021603         3.143738         2.243367
 C        -1.514352         2.026540         2.940922
 C        -0.186320         1.513084         2.257464
 C        -2.635245         1.124281         2.384944
 C        -1.963005        -0.030861         1.738982
 H        -0.483844        -0.685093        -0.204730
 H        -0.817851         2.770665        -0.023653
 H        -2.001546         1.617350        -0.720252
 H        -3.596092         2.600483         0.869367
 H        -1.475647         2.348995         3.988232
 H         0.443817         2.296321         1.808139
 H         0.404234         0.746671         2.768706
 H        -3.575742         1.022050         2.892453
 H        -1.463523        -0.745189         2.465592
 H        -2.631778        -0.648472         0.974987
