19
Iteration:  2905charge 0 multiplicity 1
 O         0.094319         0.001365         0.246713
 C        -0.781923         0.702200         1.149485
 C        -1.541946         1.709438         0.264153
 C        -2.689684         2.256709         1.241664
 O        -1.991123         3.263435         2.298300
 C        -1.428017         2.117949         2.896733
 C        -0.247383         1.585445         2.191603
 C        -2.642169         1.153565         2.347427
 C        -1.926453        -0.157976         1.692428
 H        -0.168930        -0.925207         0.278967
 H        -0.981761         2.553750        -0.226135
 H        -2.043942         1.201130        -0.565452
 H        -3.518799         2.704828         0.758683
 H        -1.453519         2.143498         3.935615
 H         0.422850         2.372277         1.856566
 H         0.501713         1.088420         2.817349
 H        -3.480319         1.008000         3.007408
 H        -1.829812        -1.019029         2.366104
 H        -2.433400        -0.483862         0.779426
