19
Iteration:  3797charge 0 multiplicity 1
 O         0.039228         0.150831         0.238545
 C        -0.867496         0.698718         1.064829
 C        -1.646287         1.735760         0.233555
 C        -2.692127         2.311893         1.241284
 O        -1.886873         3.155689         2.100669
 C        -1.442127         2.014361         2.962212
 C        -0.174767         1.440199         2.333823
 C        -2.623637         1.163998         2.343990
 C        -1.951144        -0.103588         1.763786
 H         0.671844        -0.425172         0.721889
 H        -0.965816         2.494582         0.047671
 H        -2.158591         1.262774        -0.640961
 H        -3.598877         2.734154         0.788730
 H        -1.265766         2.460616         3.942699
 H         0.452090         2.321482         1.958561
 H         0.348478         0.802661         3.108731
 H        -3.561983         1.125224         2.989904
 H        -1.575173        -0.870002         2.552447
 H        -2.444056        -0.661754         0.899165
