19
Iteration:  1882
 O         0.072435        -0.028795         0.291642
 C        -0.792353         0.763796         1.037103
 C        -1.663991         1.697299         0.190649
 C        -2.641897         2.200439         1.229815
 O        -2.131805         3.203766         2.123881
 C        -1.455037         2.181722         2.929756
 C        -0.196195         1.519926         2.309804
 C        -2.470616         1.160262         2.369095
 C        -1.873966        -0.038789         1.792755
 H         0.515706        -0.658577         0.878709
 H        -1.038758         2.544921        -0.176222
 H        -2.223230         1.124288        -0.596695
 H        -3.619028         2.460366         0.862141
 H        -1.349945         2.475365         4.006403
 H         0.507633         2.361146         1.949076
 H         0.358229         0.742069         2.895759
 H        -3.444856         1.035150         2.971418
 H        -1.593735        -0.900728         2.368473
 H        -2.465985        -0.512370         1.005424
