19
Iteration:  4516charge 0 multiplicity 1
 O         0.130529         0.010343         0.340383
 C        -0.886940         0.757054         0.998729
 C        -1.575059         1.820625         0.224955
 C        -2.624857         2.232332         1.271122
 O        -2.057943         3.210602         2.288434
 C        -1.423310         2.034348         2.928255
 C        -0.130202         1.538064         2.216357
 C        -2.596102         1.132428         2.382418
 C        -1.990948        -0.117293         1.616574
 H         0.010552        -0.891905         0.669674
 H        -1.066229         2.671872        -0.120175
 H        -2.164984         1.328770        -0.621601
 H        -3.645983         2.672503         1.024243
 H        -1.268877         2.309743         3.926717
 H         0.456308         2.349022         1.890111
 H         0.749819         0.799506         2.634848
 H        -3.587945         1.085043         2.942283
 H        -1.684649        -0.893849         2.248995
 H        -2.657400        -0.450979         0.812013
