19
Iteration:  2920charge 0 multiplicity 1
 O         0.060807        -0.072186         0.344014
 C        -0.796749         0.753758         1.029089
 C        -1.599234         1.765200         0.229975
 C        -2.583947         2.264727         1.257268
 O        -2.100919         3.177978         2.286676
 C        -1.486173         2.003294         2.939425
 C        -0.098558         1.608278         2.171838
 C        -2.580822         1.147199         2.310278
 C        -1.959728        -0.000912         1.693687
 H        -0.178920        -0.995997         0.409956
 H        -0.823780         2.586357        -0.059842
 H        -2.003043         1.229214        -0.646160
 H        -3.639862         2.646875         0.854558
 H        -1.231112         2.186502         4.026027
 H         0.378445         2.447476         1.692945
 H         0.583719         1.041498         2.798279
 H        -3.499110         1.063577         2.918834
 H        -1.467457        -0.610667         2.504718
 H        -2.645591        -0.502966         0.959679
