19
Iteration:  3744
 O         0.077859         0.033531         0.285790
 C        -0.827770         0.771920         1.074509
 C        -1.677133         1.756335         0.173793
 C        -2.682627         2.317113         1.271068
 O        -1.976031         3.258497         2.204568
 C        -1.466923         2.029610         2.918195
 C        -0.110143         1.439110         2.283020
 C        -2.547774         1.104034         2.291750
 C        -1.966225        -0.076356         1.753778
 H         0.455681        -0.747626         0.755364
 H        -1.168513         2.531529        -0.313848
 H        -2.280477         1.127609        -0.554203
 H        -3.660319         2.669040         0.927143
 H        -1.557098         2.268943         4.028415
 H         0.503674         2.311791         1.819054
 H         0.375001         0.636858         3.005017
 H        -3.472362         1.042385         2.950779
 H        -1.452368        -0.681634         2.485960
 H        -2.456948        -0.642656         0.979506
