19
Iteration:  1439charge 0 multiplicity 1
 O         0.236875         0.001184         0.398616
 C        -0.803576         0.682209         1.090512
 C        -1.607846         1.765817         0.208316
 C        -2.656052         2.306021         1.250083
 O        -2.022365         3.267085         2.142390
 C        -1.511090         2.065677         2.911807
 C        -0.251149         1.364078         2.254957
 C        -2.659833         1.150093         2.307333
 C        -1.966745        -0.061826         1.745381
 H         0.749718         0.529515        -0.228189
 H        -0.990656         2.593978        -0.229208
 H        -2.142976         1.274592        -0.525070
 H        -3.611747         2.743257         0.730757
 H        -1.438547         2.517501         3.942387
 H         0.712325         1.974445         2.215781
 H         0.107916         0.461225         2.834862
 H        -3.495075         0.991507         2.998551
 H        -1.681898        -0.822971         2.536900
 H        -2.593993        -0.539180         0.975363
