19
Iteration:  4553
 O         0.138026         0.099560         0.141201
 C        -0.837006         0.803125         1.007136
 C        -1.662973         1.741339         0.190281
 C        -2.652804         2.273197         1.292587
 O        -1.916808         3.199324         2.168302
 C        -1.493178         2.068559         2.968766
 C        -0.201267         1.361273         2.378825
 C        -2.666965         1.142018         2.386445
 C        -1.937842        -0.060440         1.772686
 H         0.594089        -0.540847         0.735504
 H        -1.128679         2.624745        -0.351695
 H        -2.272075         1.213684        -0.546771
 H        -3.558386         2.673822         0.884601
 H        -1.586859         2.206671         4.090238
 H         0.605061         2.180169         2.097517
 H         0.197677         0.534825         3.022649
 H        -3.555815         1.157490         2.962304
 H        -1.343879        -0.846065         2.335950
 H        -2.493258        -0.645808         0.975679
