19
Iteration:  1406charge 0 multiplicity 1
 O         0.115210        -0.138808         0.400874
 C        -0.721331         0.803953         1.068437
 C        -1.511762         1.779855         0.169580
 C        -2.587165         2.274048         1.278135
 O        -1.996360         3.207247         2.196667
 C        -1.607842         1.990130         2.954374
 C        -0.261678         1.630412         2.272566
 C        -2.635116         1.101165         2.270499
 C        -1.956010        -0.079807         1.736679
 H         0.003752        -0.030950        -0.544011
 H        -0.638876         2.405804        -0.197855
 H        -2.157578         1.402259        -0.560267
 H        -3.472361         2.808722         0.696436
 H        -1.614682         2.251008         4.070891
 H         0.189073         2.630298         1.970825
 H         0.408728         0.962343         2.840814
 H        -3.476962         0.891231         2.911322
 H        -1.611747        -0.840216         2.515996
 H        -2.585753        -0.297762         0.866487
