19
Iteration:   795
 O         0.203172         0.036915         0.414366
 C        -0.889494         0.732998         1.045148
 C        -1.574323         1.696148         0.147837
 C        -2.644014         2.211770         1.240059
 O        -1.919586         3.223909         2.200527
 C        -1.517485         2.093641         2.972491
 C        -0.263040         1.416412         2.366764
 C        -2.599450         1.215040         2.388699
 C        -2.025955        -0.080356         1.558543
 H         0.651042         0.668396        -0.170910
 H        -1.074929         2.530283        -0.463120
 H        -2.163750         0.967529        -0.487046
 H        -3.532279         2.618940         0.813569
 H        -1.491136         2.341273         4.025560
 H         0.538649         2.103757         2.012977
 H         0.199598         0.670102         3.059776
 H        -3.441996         1.078473         3.045674
 H        -1.740784        -0.968811         2.139534
 H        -2.740992        -0.329776         0.685347
