19
Iteration:  2846charge 0 multiplicity 1
 O         0.095864         0.107030         0.267074
 C        -0.845429         0.726681         1.097461
 C        -1.703871         1.729807         0.281471
 C        -2.629919         2.283811         1.289166
 O        -1.862701         3.183261         2.058973
 C        -1.465047         2.081732         2.966908
 C        -0.196749         1.511741         2.345580
 C        -2.601805         1.117707         2.349685
 C        -2.002493        -0.112574         1.651131
 H         0.714603        -0.485475         0.759952
 H        -1.115763         2.470495        -0.217598
 H        -2.286497         1.144114        -0.455049
 H        -3.480254         2.793943         0.855069
 H        -1.609011         2.232088         4.077874
 H         0.409225         2.358722         1.879983
 H         0.365588         0.664598         2.827545
 H        -3.448186         0.883127         3.040757
 H        -1.707208        -0.823513         2.433601
 H        -2.654322        -0.660215         0.923828
