19
Iteration:  4621charge 0 multiplicity 1
 O         0.066686        -0.051057         0.342486
 C        -0.826688         0.806006         0.996268
 C        -1.681823         1.864355         0.139270
 C        -2.607220         2.261174         1.262058
 O        -2.047328         3.208287         2.297630
 C        -1.463380         2.009464         2.919429
 C        -0.168326         1.488719         2.203298
 C        -2.599613         1.126488         2.423009
 C        -1.862978        -0.063834         1.628655
 H         0.494096        -0.595508         1.018843
 H        -1.042253         2.668321        -0.239432
 H        -2.025438         1.306505        -0.735760
 H        -3.536321         2.713899         1.022651
 H        -1.366206         2.157401         4.057189
 H         0.659123         2.196291         1.781466
 H         0.137482         0.702557         2.847225
 H        -3.386581         1.120746         3.209272
 H        -1.535630        -1.029307         2.134117
 H        -2.619969        -0.379611         0.923689
