19
Iteration:  4127
 O         0.046475        -0.103850         0.212975
 C        -0.797816         0.754636         1.028389
 C        -1.535488         1.812940         0.274701
 C        -2.607170         2.334949         1.304503
 O        -2.006919         3.232845         2.289511
 C        -1.512243         2.067239         2.955660
 C        -0.220283         1.484958         2.312613
 C        -2.625905         1.133093         2.302025
 C        -1.882277        -0.115901         1.668209
 H         0.078020         0.346613        -0.638611
 H        -0.847893         2.657130         0.031346
 H        -1.943682         1.420812        -0.729284
 H        -3.458438         2.639565         0.754986
 H        -1.672615         2.214305         4.076253
 H         0.652430         2.092104         2.039471
 H         0.005807         0.772936         3.078399
 H        -3.673471         1.179059         2.790515
 H        -1.524547        -0.915807         2.390576
 H        -2.501645        -0.853445         1.143908
