19
Iteration:   187
 O         0.120846        -0.080747         0.416527
 C        -0.770695         0.833608         0.997237
 C        -1.568373         1.836967         0.241252
 C        -2.580663         2.333474         1.235498
 O        -1.911914         3.147425         2.192939
 C        -1.562794         1.973810         3.052049
 C        -0.206057         1.477138         2.417892
 C        -2.726686         1.118800         2.237067
 C        -1.994802        -0.043621         1.566924
 H         0.311877         0.178430        -0.486453
 H        -0.891222         2.613379        -0.087671
 H        -2.076691         1.303883        -0.655755
 H        -3.433589         2.811314         0.775238
 H        -1.647572         2.261130         4.123858
 H         0.440974         2.326047         2.167774
 H         0.172738         0.668718         2.989963
 H        -3.741744         1.063651         2.724416
 H        -1.517391        -0.858526         2.140301
 H        -2.464542        -0.519846         0.717678
