19
Iteration:  2447
 O         0.200826        -0.019897         0.373782
 C        -0.804630         0.753886         1.052716
 C        -1.763815         1.772513         0.210948
 C        -2.684594         2.346576         1.191541
 O        -2.010205         3.216463         2.159547
 C        -1.441136         1.985691         2.930370
 C        -0.172246         1.489072         2.261817
 C        -2.574864         1.177436         2.340458
 C        -1.879252        -0.056727         1.778011
 H        -0.218472        -0.813081         0.022613
 H        -1.086642         2.471618        -0.208834
 H        -2.211392         1.134683        -0.579218
 H        -3.668498         2.745962         0.761992
 H        -1.368816         2.240297         3.943667
 H         0.349749         2.350724         1.909142
 H         0.323927         0.747530         2.987758
 H        -3.488029         0.933807         2.953335
 H        -1.670431        -0.795314         2.564377
 H        -2.584771        -0.494236         1.049269
