19
Iteration:    32charge 0 multiplicity 1
 O         0.262681         0.150127         0.351993
 C        -0.801455         0.776705         1.021952
 C        -1.588862         1.848849         0.200609
 C        -2.564894         2.433921         1.218847
 O        -1.808019         3.143564         2.203013
 C        -1.640227         1.884464         2.903585
 C        -0.315744         1.298097         2.465480
 C        -2.749234         1.182889         2.190119
 C        -2.013501        -0.082542         1.690004
 H        -0.095322        -0.686046        -0.052453
 H        -0.807471         2.681605         0.057156
 H        -2.005981         1.486381        -0.750172
 H        -3.434264         2.994945         0.907922
 H        -1.741531         2.015743         3.975471
 H         0.554785         1.887906         2.691053
 H        -0.153904         0.408712         2.984307
 H        -3.638682         0.977471         2.762717
 H        -1.646759        -0.748515         2.468117
 H        -2.634559        -0.535709         0.912776
