19
Iteration:   686charge 0 multiplicity 1
 O         0.187874         0.059802         0.384587
 C        -0.880864         0.763640         1.021085
 C        -1.630145         1.827950         0.158812
 C        -2.571573         2.330165         1.248918
 O        -1.877508         3.145518         2.168280
 C        -1.548762         1.968637         2.973711
 C        -0.281567         1.368305         2.331411
 C        -2.680052         1.215478         2.288017
 C        -2.025529        -0.149097         1.703871
 H         0.925820         0.711499         0.577590
 H        -0.994284         2.683143        -0.282698
 H        -2.039569         1.231350        -0.633224
 H        -3.365461         2.858202         0.750162
 H        -1.357548         2.332747         3.972104
 H         0.404409         2.156359         1.941753
 H         0.210526         0.506408         2.946442
 H        -3.654707         1.054941         2.757671
 H        -1.523845        -0.606618         2.520134
 H        -2.579022        -0.836592         1.021121
