19
Iteration:  4033charge 0 multiplicity 1
 O         0.076657         0.139303         0.135211
 C        -0.842791         0.666320         1.084267
 C        -1.610652         1.765793         0.251018
 C        -2.568830         2.284859         1.263534
 O        -1.913570         3.217554         2.169694
 C        -1.535379         2.018910         2.964039
 C        -0.211992         1.341632         2.327859
 C        -2.663315         1.176164         2.355975
 C        -1.983172        -0.059163         1.749158
 H         0.979984         0.116307         0.491929
 H        -1.040022         2.669218        -0.165264
 H        -2.001778         1.217900        -0.564534
 H        -3.417718         2.963816         0.917427
 H        -1.504281         2.159386         4.060150
 H         0.563113         2.028589         1.911617
 H         0.271479         0.562630         3.064007
 H        -3.595065         0.998436         2.951428
 H        -1.621100        -0.804007         2.442098
 H        -2.681835        -0.670449         1.180537
