19
Iteration:  1795charge 0 multiplicity 1
 O         0.271180        -0.175058         0.428966
 C        -0.721946         0.691150         1.028255
 C        -1.689074         1.794444         0.201421
 C        -2.751602         2.249669         1.314794
 O        -2.097226         3.248629         2.157665
 C        -1.489621         2.137091         2.864523
 C        -0.206657         1.487741         2.220180
 C        -2.566758         1.180406         2.372824
 C        -1.929736        -0.007322         1.703665
 H         0.115429        -0.245827        -0.532159
 H        -1.279488         2.718546        -0.256207
 H        -2.243191         1.288874        -0.596789
 H        -3.723543         2.608507         1.030860
 H        -1.469823         2.325875         3.966861
 H         0.561447         2.309650         1.871312
 H         0.414352         0.883639         2.965761
 H        -3.369356         1.031737         3.196541
 H        -1.481405        -0.491284         2.597093
 H        -2.467875        -0.726749         1.032102
