19
Iteration:  3815charge 0 multiplicity 1
 O         0.028382        -0.045388         0.207971
 C        -0.764163         0.819032         1.050957
 C        -1.584422         1.785027         0.216267
 C        -2.612725         2.215174         1.262257
 O        -1.987887         3.211750         2.216577
 C        -1.505798         2.033832         2.928910
 C        -0.147986         1.475812         2.243009
 C        -2.661167         1.137608         2.347372
 C        -1.931755         0.002140         1.753151
 H         0.817979        -0.325141         0.728962
 H        -1.086457         2.701525        -0.329025
 H        -2.092555         1.042952        -0.431104
 H        -3.569089         2.752952         0.996179
 H        -1.552294         2.070749         4.012306
 H         0.577030         2.232673         2.076561
 H         0.121544         0.655996         2.866677
 H        -3.532168         1.034553         3.043901
 H        -1.598194        -0.613961         2.614811
 H        -2.666994        -0.552996         1.121828
