19
Iteration:   694charge 0 multiplicity 1
 O         0.207320         0.049450         0.357477
 C        -0.833776         0.753538         1.069397
 C        -1.611349         1.841884         0.239772
 C        -2.605400         2.324199         1.207344
 O        -1.907553         3.137746         2.159988
 C        -1.570902         2.068767         2.927197
 C        -0.230951         1.330662         2.265753
 C        -2.661571         1.150172         2.300795
 C        -2.046703        -0.100178         1.689004
 H         1.073199         0.342357         0.747809
 H        -1.092004         2.693850        -0.150650
 H        -2.107803         1.482569        -0.632872
 H        -3.562070         2.861473         0.974079
 H        -1.501056         2.201280         4.011742
 H         0.536657         2.037060         2.032682
 H         0.161354         0.634875         3.001630
 H        -3.614174         1.119456         2.891079
 H        -1.644407        -0.766968         2.507728
 H        -2.744369        -0.750748         1.066294
