19
Iteration:  2886
 O         0.210462         0.060612         0.182606
 C        -0.831229         0.670460         1.027357
 C        -1.672723         1.714198         0.270395
 C        -2.576572         2.314393         1.308629
 O        -1.984062         3.239329         2.111609
 C        -1.535236         2.062756         2.981776
 C        -0.182333         1.461636         2.309918
 C        -2.584118         1.148001         2.391599
 C        -2.008133        -0.056493         1.734498
 H         0.074412        -0.884682         0.250943
 H        -1.106384         2.648260        -0.218838
 H        -2.210563         1.301283        -0.580848
 H        -3.662107         2.642796         0.911906
 H        -1.499791         2.472060         4.015685
 H         0.486339         2.246189         2.078839
 H         0.254493         0.835917         3.066105
 H        -3.531171         0.982634         2.895956
 H        -1.536557        -0.765566         2.507400
 H        -2.628157        -0.768742         1.194426
