19
Iteration:  3169charge 0 multiplicity 1
 O         0.077185        -0.108396         0.185785
 C        -0.760147         0.710357         1.017560
 C        -1.661237         1.834923         0.193726
 C        -2.572513         2.254118         1.260211
 O        -2.041468         3.282435         2.193728
 C        -1.519609         2.093238         3.002925
 C        -0.245212         1.512302         2.241540
 C        -2.572334         1.123202         2.367926
 C        -1.873249        -0.025332         1.798543
 H         0.575869        -0.729401         0.755741
 H        -1.085103         2.698426        -0.348412
 H        -1.991762         1.306171        -0.694223
 H        -3.631578         2.406456         1.012795
 H        -1.534633         2.280323         4.070839
 H         0.463010         2.317370         1.964858
 H         0.163420         0.652434         2.928460
 H        -3.522850         0.963067         2.910461
 H        -1.403509        -0.740615         2.528153
 H        -2.582457        -0.684114         1.327950
