19
Iteration:   970
 O         0.110248        -0.040522         0.345005
 C        -0.822073         0.745927         1.045587
 C        -1.632537         1.768643         0.220034
 C        -2.609645         2.242494         1.221068
 O        -1.995178         3.196223         2.158828
 C        -1.479336         2.069336         2.970695
 C        -0.220605         1.508677         2.340907
 C        -2.645918         1.181929         2.314803
 C        -1.938299        -0.120748         1.706400
 H         0.840583         0.595577         0.162464
 H        -1.003187         2.559596        -0.209005
 H        -2.014874         1.342442        -0.700634
 H        -3.518037         2.645851         0.781769
 H        -1.403686         2.116677         4.053097
 H         0.381185         2.375265         2.043664
 H         0.228851         0.686280         2.882249
 H        -3.567242         0.998114         2.828417
 H        -1.311101        -0.690955         2.371696
 H        -2.724458        -0.597988         1.019492
