19
Iteration:   171charge 0 multiplicity 1
 O         0.297136         0.049051         0.469445
 C        -0.816861         0.765826         1.059671
 C        -1.571447         1.868370         0.157590
 C        -2.636197         2.312336         1.246467
 O        -1.937948         3.195501         2.195342
 C        -1.551541         1.973025         2.930286
 C        -0.287532         1.246736         2.305081
 C        -2.687819         1.187529         2.297579
 C        -2.005682         0.005540         1.626864
 H         0.056126        -0.058496        -0.447707
 H        -1.023205         2.823808        -0.149687
 H        -2.080260         1.399326        -0.638641
 H        -3.588820         2.752094         0.872080
 H        -1.453716         2.042932         4.017791
 H         0.614278         1.923343         2.321584
 H        -0.020198         0.273383         2.881658
 H        -3.576742         0.967804         2.861837
 H        -1.700347        -0.654195         2.443780
 H        -2.707563        -0.409823         0.850671
