19
Iteration:  3057
 O         0.029006        -0.187956         0.262094
 C        -0.801010         0.687569         1.030630
 C        -1.528433         1.824007         0.235248
 C        -2.604157         2.242026         1.275156
 O        -2.044702         3.224042         2.228576
 C        -1.506256         2.131860         2.954116
 C        -0.171996         1.631197         2.184386
 C        -2.618866         1.093679         2.435592
 C        -1.943882        -0.066265         1.729471
 H         0.968791         0.088416         0.070246
 H        -0.868717         2.602557        -0.062007
 H        -1.972572         1.306968        -0.609653
 H        -3.509061         2.524851         0.871931
 H        -1.369754         2.366393         3.997037
 H         0.005819         2.560121         1.617280
 H         0.480682         1.097900         2.911157
 H        -3.483797         0.962932         3.149196
 H        -1.674254        -1.011514         2.253453
 H        -2.664551        -0.330426         0.944359
