19
Iteration:  1785
 O         0.255217        -0.124950         0.401059
 C        -0.820050         0.724639         1.045625
 C        -1.631126         1.790683         0.183174
 C        -2.738637         2.262587         1.285695
 O        -2.130473         3.270973         2.212403
 C        -1.421786         2.100710         2.819830
 C        -0.166504         1.557406         2.191493
 C        -2.618071         1.154880         2.322759
 C        -1.926041        -0.105299         1.826781
 H        -0.024105        -0.467851        -0.463013
 H        -0.888833         2.610248         0.015667
 H        -1.902904         1.296212        -0.709693
 H        -3.684033         2.523308         0.817377
 H        -1.302503         2.388507         3.906229
 H         0.566830         2.419516         1.889324
 H         0.310493         0.810798         2.886241
 H        -3.414001         1.141168         3.144930
 H        -1.570218        -0.908776         2.563537
 H        -2.648428        -0.693305         1.159990
