19
Iteration:  1183
 O         0.307147         0.087921         0.323901
 C        -0.837718         0.718677         1.160193
 C        -1.580640         1.728308         0.314272
 C        -2.649587         2.214054         1.248148
 O        -1.965854         3.228496         2.122546
 C        -1.521576         2.121426         2.888003
 C        -0.193133         1.445549         2.274247
 C        -2.681776         1.177964         2.338775
 C        -2.068127        -0.143261         1.703801
 H        -0.090624        -0.412055        -0.422948
 H        -0.956103         2.602149        -0.046602
 H        -2.088130         1.360521        -0.628296
 H        -3.558711         2.586672         0.758607
 H        -1.406618         2.320152         3.994264
 H         0.548157         2.167342         1.910477
 H         0.259262         0.735517         3.031236
 H        -3.608536         1.171625         3.077324
 H        -1.937803        -1.005180         2.409907
 H        -2.649503        -0.455710         0.773871
