19
Iteration:  4997charge 0 multiplicity 1
 O         0.166746         0.044986         0.196757
 C        -0.824511         0.725619         1.046982
 C        -1.584813         1.799518         0.270462
 C        -2.562696         2.267947         1.304395
 O        -2.021551         3.196051         2.222549
 C        -1.469975         2.088949         2.974769
 C        -0.231145         1.432452         2.283259
 C        -2.561480         1.160074         2.357902
 C        -1.999884        -0.088655         1.692760
 H        -0.406944        -0.605755        -0.225022
 H        -1.008279         2.702807        -0.148822
 H        -1.973948         1.317699        -0.647604
 H        -3.645228         2.367854         0.897496
 H        -1.395041         2.222982         4.065973
 H         0.449950         2.258641         2.078585
 H         0.157642         0.688651         3.039201
 H        -3.577642         1.021067         2.773648
 H        -1.664389        -0.898700         2.349591
 H        -2.863634        -0.275569         1.068790
