19
Iteration:   479
 O         0.083972        -0.221610         0.330935
 C        -0.762934         0.729606         1.040768
 C        -1.508370         1.920477         0.240529
 C        -2.524070         2.410684         1.150311
 O        -1.997148         3.200984         2.385889
 C        -1.683333         1.966196         2.971979
 C        -0.182030         1.533766         2.285900
 C        -2.746464         1.107947         2.197655
 C        -1.947397        -0.071760         1.680114
 H         0.871921         0.316387         0.234353
 H        -0.722303         2.671161        -0.173767
 H        -2.016343         1.575838        -0.687147
 H        -3.350652         3.030198         0.917213
 H        -1.562638         1.925939         4.054926
 H         0.313239         2.429108         1.915874
 H         0.581847         0.926318         2.696482
 H        -3.806574         0.959833         2.614256
 H        -1.491070        -0.708891         2.408256
 H        -2.387331        -0.687177         0.877562
