19
Iteration:  2048
 O         0.078468        -0.032818         0.326156
 C        -0.770423         0.754437         1.047120
 C        -1.663539         1.698486         0.197687
 C        -2.657893         2.172621         1.249622
 O        -2.052469         3.222043         2.087906
 C        -1.470181         2.114605         2.923513
 C        -0.112739         1.648790         2.149805
 C        -2.565070         1.116393         2.458202
 C        -1.960693        -0.111859         1.830769
 H         0.635612        -0.504797         0.952848
 H        -1.219801         2.776523        -0.104794
 H        -2.232560         1.196122        -0.606880
 H        -3.655756         2.450830         0.915133
 H        -1.246455         2.450862         3.992269
 H         0.202782         2.653667         1.699020
 H         0.611563         1.172985         2.790133
 H        -3.441645         0.899923         3.026797
 H        -1.573084        -0.929793         2.491423
 H        -2.520844        -0.634406         1.058664
