19
Iteration:   971
 O         0.105756        -0.041061         0.353911
 C        -0.822402         0.749736         1.033986
 C        -1.627175         1.773750         0.219842
 C        -2.613561         2.236861         1.220346
 O        -1.997726         3.197791         2.159799
 C        -1.473285         2.069913         2.969162
 C        -0.224734         1.503701         2.340025
 C        -2.643767         1.172346         2.315231
 C        -1.935076        -0.118585         1.705655
 H         0.860382         0.561628         0.173328
 H        -1.019695         2.585002        -0.206405
 H        -2.026057         1.373155        -0.727458
 H        -3.494957         2.662245         0.783498
 H        -1.406064         2.134667         4.055988
 H         0.381635         2.350415         2.032917
 H         0.204962         0.708548         2.887579
 H        -3.557176         1.011492         2.848913
 H        -1.299554        -0.667119         2.367964
 H        -2.723931        -0.603794         1.041787
