19
Iteration:  3864
 O         0.068327        -0.058546         0.316744
 C        -0.796427         0.733799         1.067250
 C        -1.579236         1.812934         0.199272
 C        -2.631607         2.292791         1.309778
 O        -2.069840         3.198025         2.230726
 C        -1.401877         1.949332         2.882356
 C        -0.122637         1.471948         2.183047
 C        -2.678658         1.180625         2.385305
 C        -1.995523        -0.011553         1.701599
 H         0.978355         0.121450         0.556576
 H        -0.898937         2.549803         0.004856
 H        -2.085883         1.436998        -0.699895
 H        -3.614002         2.541282         1.016167
 H        -1.288678         2.118420         3.980225
 H         0.218257         2.499336         1.912946
 H         0.602255         0.799378         2.639561
 H        -3.609571         1.098842         2.884093
 H        -1.609469        -0.824004         2.414701
 H        -2.631145        -0.453748         0.914332
