19
Iteration:   742
 O         0.090046        -0.078494         0.307601
 C        -0.836110         0.772758         1.042179
 C        -1.452120         1.840641         0.217639
 C        -2.551083         2.282082         1.211759
 O        -2.087158         3.201648         2.252722
 C        -1.578210         1.989875         2.938668
 C        -0.197153         1.571488         2.334668
 C        -2.634387         1.143156         2.257474
 C        -1.886029        -0.066683         1.745838
 H        -0.480026        -0.810610         0.028742
 H        -0.710098         2.605987        -0.183951
 H        -1.905068         1.586593        -0.700268
 H        -3.396939         2.681630         0.704303
 H        -1.412320         2.146879         4.004427
 H         0.550984         2.411136         2.127710
 H         0.239218         0.860036         3.108976
 H        -3.546821         0.810846         2.701575
 H        -1.723301        -0.852049         2.472122
 H        -2.468840        -0.526182         0.922136
