19
Iteration:  2884
 O         0.213740         0.072215         0.185535
 C        -0.837717         0.686238         1.026818
 C        -1.672647         1.711961         0.256507
 C        -2.593676         2.304507         1.292537
 O        -1.977239         3.220527         2.106899
 C        -1.521582         2.062995         2.998199
 C        -0.203076         1.438397         2.303425
 C        -2.576022         1.166398         2.401415
 C        -2.006512        -0.039898         1.739415
 H         0.083469        -0.889890         0.282666
 H        -1.175358         2.654919        -0.199437
 H        -2.216895         1.304671        -0.592558
 H        -3.601402         2.618843         0.907645
 H        -1.564330         2.442342         3.986894
 H         0.553210         2.181954         2.160292
 H         0.277942         0.783540         3.022699
 H        -3.513353         0.964507         2.879206
 H        -1.513596        -0.659356         2.549232
 H        -2.600613        -0.763558         1.223021
