19
Iteration:  1705charge 0 multiplicity 1
 O         0.205421         0.122853         0.363877
 C        -0.859100         0.726742         1.040684
 C        -1.707190         1.648424         0.172679
 C        -2.632113         2.195616         1.268031
 O        -1.955087         3.247227         2.079491
 C        -1.458402         2.068149         2.962577
 C        -0.248073         1.528231         2.181296
 C        -2.592478         1.150623         2.445883
 C        -2.005964        -0.102495         1.732114
 H         0.785301        -0.282293         1.025412
 H        -1.134895         2.450968        -0.113791
 H        -2.071544         1.164870        -0.736383
 H        -3.551831         2.531341         0.832845
 H        -1.320921         2.332381         3.983236
 H         0.580035         2.195815         1.991867
 H         0.148123         0.638671         2.835435
 H        -3.468523         1.103536         3.065280
 H        -1.611480        -0.802659         2.426306
 H        -2.747451        -0.548240         1.076161
