19
Iteration:  4857
 O         0.155434         0.067772         0.353821
 C        -0.825239         0.777111         1.028887
 C        -1.699951         1.727223         0.136625
 C        -2.625550         2.334428         1.334857
 O        -1.929697         3.220026         2.263465
 C        -1.480326         1.965005         2.939282
 C        -0.195116         1.460657         2.291076
 C        -2.618302         1.176700         2.328890
 C        -1.947586        -0.056838         1.648535
 H        -0.186269        -0.739227        -0.042323
 H        -1.024774         2.405489        -0.554506
 H        -2.223075         1.078540        -0.582134
 H        -3.660169         2.758215         0.945801
 H        -1.556748         2.154774         4.018702
 H         0.456710         2.319653         2.082677
 H         0.324856         0.699397         2.882062
 H        -3.404992         0.788933         2.933710
 H        -1.598254        -0.856402         2.385448
 H        -2.455674        -0.532686         0.689655
