19
Iteration:  3557
 O         0.102511        -0.050451         0.196693
 C        -0.783229         0.685222         1.064414
 C        -1.614129         1.772390         0.211897
 C        -2.683343         2.335683         1.266725
 O        -1.972935         3.218172         2.257848
 C        -1.476329         2.050747         2.897828
 C        -0.158110         1.577367         2.263739
 C        -2.649822         1.119365         2.408618
 C        -1.961460        -0.122898         1.684556
 H         0.598489        -0.512689         0.901368
 H        -1.037454         2.609131        -0.095649
 H        -2.222631         1.267963        -0.642835
 H        -3.486355         2.882229         0.791332
 H        -1.450346         2.319997         3.996199
 H         0.495645         2.298577         1.754370
 H         0.303952         1.037199         3.046014
 H        -3.561730         1.109790         3.045060
 H        -1.698782        -0.730132         2.500335
 H        -2.525065        -0.699600         0.978239
