19
Iteration:   514charge 0 multiplicity 1
 O         0.125720        -0.052176         0.313792
 C        -0.845055         0.774978         1.089448
 C        -1.534193         1.851918         0.221533
 C        -2.599787         2.302129         1.186614
 O        -2.007564         3.231760         2.256484
 C        -1.535882         2.057991         2.948572
 C        -0.176374         1.357711         2.373326
 C        -2.633473         1.112415         2.326767
 C        -2.002632        -0.041711         1.556558
 H         1.022241         0.011294         0.631012
 H        -0.894974         2.710632         0.002141
 H        -1.923932         1.302669        -0.651560
 H        -3.537022         2.570575         0.735962
 H        -1.609563         2.326069         4.026051
 H         0.629974         2.082609         2.142531
 H         0.143658         0.600479         3.051736
 H        -3.636467         1.082645         2.784825
 H        -1.890174        -1.003763         2.107245
 H        -2.695129        -0.259916         0.738913
