19
Iteration:  4563charge 0 multiplicity 1
 O         0.050637         0.173099         0.154386
 C        -0.795553         0.733562         1.062278
 C        -1.698003         1.742821         0.181423
 C        -2.552972         2.253173         1.263480
 O        -1.942431         3.160100         2.190520
 C        -1.471179         2.032012         2.999528
 C        -0.248424         1.421079         2.340968
 C        -2.617553         1.190319         2.323434
 C        -1.960326        -0.076262         1.728939
 H         0.782558        -0.320989         0.599777
 H        -0.942976         2.431922        -0.349016
 H        -2.150168         1.054963        -0.530679
 H        -3.471934         2.662419         0.849212
 H        -1.515420         2.287920         4.085551
 H         0.755347         1.953609         2.158822
 H         0.167093         0.639392         3.125363
 H        -3.459222         1.025518         2.933490
 H        -1.534995        -0.512396         2.673026
 H        -2.665772        -0.822691         1.250462
