19
Iteration:  2598
 O         0.259789         0.059223         0.220203
 C        -0.815251         0.720122         1.057854
 C        -1.633709         1.767239         0.168415
 C        -2.631820         2.298303         1.258753
 O        -1.931969         3.156943         2.139051
 C        -1.530174         2.111345         2.971928
 C        -0.250032         1.357547         2.342291
 C        -2.688913         1.220128         2.419654
 C        -1.972900        -0.051805         1.751433
 H         0.044517        -0.871535         0.080068
 H        -1.097271         2.618928        -0.148050
 H        -2.124393         1.246364        -0.696437
 H        -3.551765         2.935790         1.108995
 H        -1.472928         2.485402         3.968726
 H         0.629785         1.984383         2.191408
 H         0.113680         0.596163         2.907476
 H        -3.739479         1.041017         2.855928
 H        -1.527043        -0.762223         2.450845
 H        -2.666130        -0.520431         1.011862
