19
Iteration:  1846charge 0 multiplicity 1
 O         0.170833         0.045579         0.226204
 C        -0.823690         0.678902         1.100061
 C        -1.662174         1.681861         0.313689
 C        -2.647490         2.251398         1.200895
 O        -1.972077         3.186611         2.052104
 C        -1.476732         2.080647         2.927521
 C        -0.223791         1.474073         2.236992
 C        -2.686227         1.157260         2.345219
 C        -1.927885        -0.074536         1.953156
 H         0.915153         0.657148         0.154227
 H        -1.075131         2.431584        -0.119558
 H        -2.142117         1.215128        -0.632793
 H        -3.593920         2.701196         0.856519
 H        -1.415784         2.464850         3.919954
 H         0.289980         2.313140         1.908854
 H         0.492361         0.870188         2.768856
 H        -3.618218         1.129842         2.932841
 H        -1.495340        -0.657891         2.710891
 H        -2.590759        -0.560918         1.238461
