19
Iteration:  1855
 O         0.184221         0.004587         0.171264
 C        -0.733379         0.710750         1.044526
 C        -1.624237         1.650322         0.292714
 C        -2.680304         2.281375         1.277916
 O        -2.019053         3.249052         2.086384
 C        -1.537784         2.168694         2.861995
 C        -0.229061         1.446557         2.234335
 C        -2.685462         1.164621         2.393893
 C        -1.944717        -0.130831         1.945620
 H         1.067029         0.357311         0.345069
 H        -1.004447         2.514937         0.016893
 H        -2.122175         1.204563        -0.579991
 H        -3.604686         2.763845         0.805088
 H        -1.384851         2.457627         3.890011
 H         0.393687         2.256087         1.989215
 H         0.240776         0.686175         2.822127
 H        -3.493782         1.127527         3.048714
 H        -1.608558        -0.761018         2.820040
 H        -2.339063        -0.882339         1.225217
