19
Iteration:  4078
 O         0.083227        -0.097767         0.367910
 C        -0.829768         0.720544         1.024604
 C        -1.668996         1.823152         0.241550
 C        -2.613814         2.352207         1.303765
 O        -1.900395         3.197020         2.237023
 C        -1.447238         2.025498         3.018648
 C        -0.320921         1.463083         2.236413
 C        -2.577559         1.114586         2.324933
 C        -1.940446        -0.043361         1.556267
 H         0.826654         0.499746         0.135848
 H        -0.965587         2.597012        -0.112943
 H        -2.326439         1.570280        -0.578522
 H        -3.672936         2.678700         0.992371
 H        -1.302343         2.317315         4.031117
 H         0.214935         2.419506         1.912464
 H         0.386616         0.773915         2.855788
 H        -3.434090         0.753048         2.830869
 H        -1.782677        -0.896115         2.173780
 H        -2.511974        -0.494934         0.737884
