19
Iteration:  1093
 O         0.218872         0.085920         0.413903
 C        -0.855633         0.737040         1.064797
 C        -1.544607         1.691693         0.183762
 C        -2.632677         2.237753         1.300703
 O        -1.958484         3.185373         2.113005
 C        -1.483251         2.096099         2.959636
 C        -0.259702         1.493990         2.345232
 C        -2.580312         1.146997         2.361937
 C        -2.050568        -0.050971         1.647304
 H        -0.092334         0.027994        -0.523434
 H        -0.963085         2.361240        -0.406072
 H        -2.065971         1.106477        -0.585550
 H        -3.589928         2.381525         0.902476
 H        -1.535919         2.339826         4.017625
 H         0.552857         2.097945         1.957473
 H         0.194380         0.745264         3.039671
 H        -3.554269         0.989296         2.861190
 H        -1.807812        -0.970059         2.183605
 H        -2.841422        -0.363252         0.897095
