19
Iteration:  3121charge 0 multiplicity 1
 O         0.142146         0.184317         0.250247
 C        -0.861507         0.690959         1.076280
 C        -1.747169         1.665413         0.249766
 C        -2.631609         2.212297         1.306907
 O        -1.830037         3.204719         2.082561
 C        -1.458511         2.123401         2.935931
 C        -0.251096         1.494721         2.345101
 C        -2.578740         1.167848         2.368923
 C        -1.971126        -0.137672         1.708590
 H         0.416242        -0.637043         0.697645
 H        -1.238751         2.318194        -0.375192
 H        -2.433356         1.127489        -0.606661
 H        -3.570759         2.614481         0.996870
 H        -1.393707         2.386903         4.029509
 H         0.428759         2.310668         1.843501
 H         0.310013         0.794050         2.954672
 H        -3.516458         1.143607         2.971143
 H        -1.753771        -0.946813         2.408160
 H        -2.664419        -0.648033         0.978699
