19
Iteration:  1999
 O         0.089828        -0.055530         0.299229
 C        -0.865158         0.789424         1.080761
 C        -1.714335         1.693363         0.131704
 C        -2.683307         2.208123         1.232848
 O        -2.023120         3.187240         2.101609
 C        -1.471530         2.088279         2.950275
 C        -0.145694         1.571505         2.206991
 C        -2.551151         1.179126         2.397405
 C        -1.834809        -0.046664         1.888192
 H         0.988042         0.280111         0.516570
 H        -1.129429         2.397003        -0.319935
 H        -2.267197         1.047147        -0.571404
 H        -3.688615         2.549980         0.907000
 H        -1.622098         2.277579         4.000002
 H         0.503561         2.276611         1.825779
 H         0.252450         0.884475         2.900946
 H        -3.532289         1.097218         2.974456
 H        -1.385983        -0.721373         2.621221
 H        -2.424989        -0.712556         1.195042
