19
Iteration:  1454charge 0 multiplicity 1
 O         0.196704        -0.002280         0.333895
 C        -0.819485         0.750616         1.038273
 C        -1.625887         1.711872         0.225485
 C        -2.637901         2.230686         1.241255
 O        -1.941230         3.215270         2.073341
 C        -1.486700         2.093936         2.902311
 C        -0.260566         1.468826         2.439454
 C        -2.597344         1.172583         2.409380
 C        -2.042362        -0.105486         1.643950
 H         0.784998         0.779676         0.137921
 H        -0.977155         2.494011        -0.058898
 H        -2.061595         1.168292        -0.729245
 H        -3.558073         2.593413         0.901932
 H        -1.503867         2.115488         3.976453
 H         0.435845         2.169858         2.155608
 H         0.022817         0.881284         3.282014
 H        -3.572800         1.093256         2.965395
 H        -1.613339        -0.856072         2.302410
 H        -2.825738        -0.445150         0.872348
