19
Iteration:  1682charge 0 multiplicity 1
 O         0.157220        -0.018422         0.206030
 C        -0.761968         0.659566         1.100467
 C        -1.549469         1.717500         0.269852
 C        -2.680986         2.268308         1.234113
 O        -2.033687         3.219206         2.113503
 C        -1.483375         2.036472         2.980382
 C        -0.204105         1.593428         2.220959
 C        -2.634973         1.153356         2.401875
 C        -2.041319        -0.111671         1.805724
 H         1.020001         0.198845         0.629224
 H        -0.905293         2.376986        -0.204598
 H        -1.995824         1.126783        -0.568281
 H        -3.601958         2.609263         0.742794
 H        -1.337079         2.333967         3.987295
 H         0.149415         2.487225         1.738853
 H         0.622484         1.243980         2.974461
 H        -3.605303         1.201343         2.819827
 H        -1.727786        -0.737531         2.588293
 H        -2.752221        -0.580676         1.140527
