19
Iteration:  2919charge 0 multiplicity 1
 O         0.057863        -0.063474         0.341657
 C        -0.796098         0.748848         1.040044
 C        -1.597855         1.751979         0.235724
 C        -2.589732         2.263388         1.248547
 O        -2.094270         3.181817         2.293793
 C        -1.487702         2.007744         2.942330
 C        -0.096949         1.610646         2.164904
 C        -2.577105         1.149166         2.309707
 C        -1.963647        -0.002544         1.686426
 H        -0.197010        -0.994917         0.412291
 H        -0.822465         2.605083        -0.049323
 H        -1.973278         1.211854        -0.637428
 H        -3.638432         2.649765         0.843127
 H        -1.231864         2.195248         4.002511
 H         0.344083         2.429076         1.682383
 H         0.544784         1.038438         2.805952
 H        -3.480024         1.056469         2.925293
 H        -1.480632        -0.631687         2.500817
 H        -2.604502        -0.519931         0.944016
