19
Iteration:  3729charge 0 multiplicity 1
 O         0.035694        -0.086513         0.228905
 C        -0.799732         0.741130         1.022755
 C        -1.606132         1.814653         0.268750
 C        -2.618552         2.244975         1.306462
 O        -1.953826         3.207452         2.208241
 C        -1.496011         2.067260         2.907417
 C        -0.265186         1.612404         2.228027
 C        -2.665664         1.159641         2.375997
 C        -1.853776        -0.098807         1.703584
 H         0.491561        -0.679074         0.870435
 H        -0.922536         2.682011         0.020459
 H        -2.051367         1.342922        -0.601751
 H        -3.507600         2.670669         0.776183
 H        -1.288680         2.130401         3.937657
 H         0.436047         2.426154         2.011400
 H         0.375186         0.934630         2.867676
 H        -3.583208         0.946606         2.968433
 H        -1.514719        -0.871369         2.512435
 H        -2.516290        -0.728107         1.006311
