19
Iteration:  3521charge 0 multiplicity 1
 O         0.133858         0.207989         0.266868
 C        -0.857628         0.731335         1.029993
 C        -1.705990         1.687557         0.188994
 C        -2.637337         2.261282         1.248580
 O        -1.854448         3.179458         2.126823
 C        -1.448919         2.103525         2.943353
 C        -0.231353         1.408662         2.307575
 C        -2.645239         1.154502         2.384966
 C        -2.015126        -0.130459         1.765378
 H         0.592598        -0.551630         0.667329
 H        -1.142054         2.518113        -0.404451
 H        -2.235221         1.167283        -0.612652
 H        -3.523086         2.869355         0.950304
 H        -1.417588         2.297474         3.994992
 H         0.627977         2.060757         2.239736
 H         0.181791         0.610967         3.027199
 H        -3.446529         1.162713         3.127683
 H        -1.453998        -0.882583         2.371194
 H        -2.582536        -0.757006         1.032201
