19
Iteration:  4329
 O         0.170373         0.001020         0.269248
 C        -0.830371         0.777684         0.997498
 C        -1.570299         1.782184         0.161330
 C        -2.617020         2.210040         1.338044
 O        -2.001921         3.190561         2.214942
 C        -1.443607         2.075487         2.977246
 C        -0.253852         1.434849         2.288513
 C        -2.622880         1.159828         2.365242
 C        -2.015013        -0.049316         1.746411
 H        -0.000708         0.298409        -0.634433
 H        -0.908329         2.623063        -0.184932
 H        -2.181530         1.400094        -0.724404
 H        -3.671494         2.545757         1.013992
 H        -1.297506         2.252941         4.072085
 H         0.480887         2.104917         2.069090
 H         0.172748         0.585381         2.803711
 H        -3.401881         1.099051         3.149259
 H        -1.603825        -0.784753         2.485975
 H        -2.472498        -0.597973         0.841789
