19
Iteration:  4412charge 0 multiplicity 1
 O         0.189642         0.047419         0.291729
 C        -0.821568         0.726586         0.999178
 C        -1.728881         1.710839         0.280906
 C        -2.702931         2.353078         1.265510
 O        -1.901338         3.222404         2.241406
 C        -1.461096         2.002462         2.912957
 C        -0.277376         1.422444         2.216843
 C        -2.610164         1.154751         2.348677
 C        -1.989787        -0.090786         1.659475
 H         0.968410         0.234828         0.855766
 H        -1.165306         2.561201        -0.244290
 H        -2.371453         1.244125        -0.452275
 H        -3.559704         2.887100         0.944996
 H        -1.189994         2.153518         4.022637
 H         0.571162         2.263830         1.910919
 H         0.262277         0.781030         3.035373
 H        -3.455507         0.980585         2.980180
 H        -1.469060        -0.761025         2.378384
 H        -2.532341        -0.733032         0.956351
