19
Iteration:  3012charge 0 multiplicity 1
 O         0.195433         0.053356         0.370174
 C        -0.822814         0.740589         1.070885
 C        -1.737237         1.774603         0.228692
 C        -2.642999         2.341751         1.257629
 O        -1.879320         3.237603         2.101515
 C        -1.470906         2.062388         2.910792
 C        -0.282888         1.397241         2.279145
 C        -2.638565         1.123933         2.391227
 C        -1.892439        -0.159451         1.736911
 H        -0.080082         0.298132        -0.551283
 H        -1.220125         2.473144        -0.274833
 H        -2.354975         1.128137        -0.433624
 H        -3.536414         2.753598         0.991358
 H        -1.414553         2.270537         3.967396
 H         0.436742         2.177853         1.887236
 H         0.127565         0.590520         2.913762
 H        -3.605230         1.079233         2.858928
 H        -1.363565        -0.705969         2.508847
 H        -2.611045        -0.808527         1.210888
