19
Iteration:  2957
 O         0.160270         0.001146         0.320196
 C        -0.838268         0.702048         1.022699
 C        -1.667309         1.736227         0.265478
 C        -2.671690         2.288580         1.323693
 O        -1.978059         3.268413         2.193617
 C        -1.463091         2.111613         2.877258
 C        -0.233210         1.467540         2.245038
 C        -2.614609         1.126551         2.341303
 C        -1.866631        -0.038924         1.681103
 H        -0.078604        -0.927266         0.271949
 H        -1.018491         2.470066         0.002617
 H        -2.113563         1.439321        -0.708725
 H        -3.582367         2.665782         1.014764
 H        -1.449452         2.226699         3.971847
 H         0.638776         2.199962         1.955180
 H         0.201575         0.688334         2.963164
 H        -3.560300         0.902278         2.821708
 H        -1.467280        -0.767819         2.352334
 H        -2.651808        -0.642559         1.179727
