19
Iteration:  3907
 O         0.112259         0.046477         0.229610
 C        -0.828899         0.755043         1.050418
 C        -1.721369         1.706947         0.256578
 C        -2.614665         2.341360         1.312317
 O        -1.867084         3.324383         2.071714
 C        -1.495147         1.990344         3.037298
 C        -0.272866         1.341522         2.402059
 C        -2.633280         1.119800         2.335369
 C        -1.909050        -0.108422         1.700234
 H         0.422993         0.820306        -0.254885
 H        -1.193912         2.447455        -0.250961
 H        -2.177672         1.074652        -0.565884
 H        -3.473881         2.738677         0.817127
 H        -1.465395         2.287385         4.115205
 H         0.504770         2.055844         2.052197
 H         0.058253         0.577749         3.023226
 H        -3.487070         0.984497         2.947821
 H        -1.401141        -0.830716         2.464717
 H        -2.432400        -0.565266         0.824847
