19
Iteration:  3411charge 0 multiplicity 1
 O         0.045758         0.104463         0.263301
 C        -0.853860         0.793169         1.022343
 C        -1.651914         1.713105         0.232780
 C        -2.584921         2.222247         1.247938
 O        -1.922132         3.227765         2.116144
 C        -1.457663         2.093036         2.990181
 C        -0.202707         1.437611         2.337126
 C        -2.577344         1.141606         2.397774
 C        -1.991667        -0.095531         1.695075
 H         0.408176        -0.624346         0.808609
 H        -0.919194         2.479030        -0.418652
 H        -2.085032         1.053467        -0.549074
 H        -3.624155         2.523656         0.904809
 H        -1.354314         2.244352         4.058978
 H         0.351263         2.295857         1.995788
 H         0.134884         0.667317         3.059204
 H        -3.526680         1.058787         2.952345
 H        -1.430107        -0.833860         2.324105
 H        -2.520294        -0.550931         0.835560
