19
Iteration:  4486charge 0 multiplicity 1
 O         0.139974        -0.076931         0.164316
 C        -0.823223         0.686395         0.974950
 C        -1.582980         1.810615         0.242638
 C        -2.617812         2.287927         1.309694
 O        -2.033812         3.218940         2.330018
 C        -1.546224         2.050624         2.914721
 C        -0.216908         1.565949         2.307640
 C        -2.649771         1.198837         2.322422
 C        -1.850244        -0.088273         1.688718
 H         0.059791        -0.998348         0.469724
 H        -0.932240         2.631508        -0.139388
 H        -2.176996         1.291309        -0.562716
 H        -3.560043         2.764922         0.963630
 H        -1.484026         2.275806         3.997653
 H         0.445724         2.419838         2.031649
 H         0.507311         0.905699         2.766414
 H        -3.580450         1.040857         2.858567
 H        -1.423098        -0.625380         2.569907
 H        -2.536406        -0.838069         1.128147
