19
Iteration:  3338
 O         0.077993        -0.141695         0.283801
 C        -0.810999         0.744207         1.002707
 C        -1.601030         1.805045         0.231110
 C        -2.660785         2.270420         1.280783
 O        -1.995591         3.259578         2.196160
 C        -1.490325         2.026429         2.997095
 C        -0.172790         1.573873         2.264540
 C        -2.593041         1.125179         2.366937
 C        -1.937594        -0.050245         1.646155
 H         0.710829        -0.554065         0.930496
 H        -1.144503         2.599282        -0.296679
 H        -2.118853         1.288503        -0.589680
 H        -3.627095         2.762630         0.962994
 H        -1.334285         2.311583         4.083726
 H         0.259759         2.462832         1.806870
 H         0.442780         0.855296         2.844935
 H        -3.483759         1.076385         3.063705
 H        -1.556897        -0.854184         2.246234
 H        -2.696715        -0.492634         0.919023
