19
Iteration:  4479charge 0 multiplicity 1
 O         0.102697        -0.047356         0.151519
 C        -0.745616         0.712339         1.002181
 C        -1.660890         1.825401         0.286973
 C        -2.643219         2.314164         1.269225
 O        -1.992208         3.275213         2.276348
 C        -1.537613         2.054545         2.984735
 C        -0.161028         1.520613         2.312502
 C        -2.676844         1.136028         2.295567
 C        -1.876028        -0.150910         1.696204
 H         0.136290        -0.956784         0.460413
 H        -0.923056         2.572957        -0.147837
 H        -2.080158         1.356628        -0.575075
 H        -3.526694         2.633151         0.776481
 H        -1.430216         2.355814         4.096275
 H         0.295671         2.569204         2.119121
 H         0.428041         0.777046         2.833292
 H        -3.632497         0.973086         2.762970
 H        -1.378035        -0.678570         2.569300
 H        -2.470731        -0.906744         1.211710
