19
Iteration:  2988charge 0 multiplicity 1
 O         0.233168         0.193245         0.221707
 C        -0.789975         0.713355         1.068600
 C        -1.642524         1.632973         0.168623
 C        -2.666182         2.216248         1.213860
 O        -1.863966         3.130118         2.145762
 C        -1.464804         2.055215         2.933427
 C        -0.166293         1.488715         2.352949
 C        -2.662340         1.190897         2.447246
 C        -2.111846        -0.050801         1.818342
 H        -0.314517        -0.410756        -0.331860
 H        -1.054466         2.435692        -0.178784
 H        -2.095541         1.040986        -0.688205
 H        -3.593397         2.732007         0.906707
 H        -1.502670         2.276499         4.044365
 H         0.384029         2.380520         1.976019
 H         0.292144         0.789369         3.009912
 H        -3.658257         1.160852         2.867317
 H        -1.733680        -0.873365         2.429860
 H        -2.995980        -0.378999         1.175211
