19
Iteration:  4736
 O         0.097757        -0.044770         0.343716
 C        -0.864985         0.751167         1.042174
 C        -1.616756         1.800012         0.209359
 C        -2.686873         2.272541         1.240099
 O        -1.942606         3.210416         2.302770
 C        -1.465023         2.013482         2.942286
 C        -0.177442         1.514371         2.199150
 C        -2.597806         1.107525         2.333288
 C        -1.964386        -0.086877         1.675210
 H         0.900035         0.495176         0.433438
 H        -1.029572         2.713748        -0.209248
 H        -2.054190         1.407661        -0.717770
 H        -3.682249         2.693736         0.823572
 H        -1.244591         2.134642         3.988998
 H         0.224147         2.407505         1.780073
 H         0.447644         0.749414         2.647035
 H        -3.408422         1.012347         3.040504
 H        -1.828746        -0.942052         2.347977
 H        -2.756031        -0.512739         0.954445
