19
Iteration:    71charge 0 multiplicity 1
 O         0.204588        -0.126169         0.397585
 C        -0.825749         0.686892         1.040265
 C        -1.408933         1.887937         0.235486
 C        -2.558932         2.356963         1.241101
 O        -2.067665         3.186477         2.326550
 C        -1.522189         1.985014         2.977332
 C        -0.214667         1.481834         2.330412
 C        -2.676986         1.133468         2.225627
 C        -2.144900        -0.050189         1.523021
 H         0.729018         0.380072        -0.240956
 H        -0.635675         2.661453         0.174227
 H        -1.842016         1.634082        -0.743669
 H        -3.441679         2.762564         0.665952
 H        -1.584228         2.155767         4.083784
 H         0.511417         2.318845         2.090816
 H         0.206781         0.617573         2.982529
 H        -3.557336         1.235998         2.919957
 H        -2.048432        -0.991392         2.146910
 H        -2.729711        -0.250633         0.591070
