19
Iteration:  2791
 O         0.010874        -0.192895         0.356677
 C        -0.804098         0.737809         1.079667
 C        -1.615418         1.878795         0.246395
 C        -2.643200         2.267874         1.283732
 O        -2.032155         3.242401         2.230572
 C        -1.476188         2.066501         2.879853
 C        -0.214300         1.472925         2.221286
 C        -2.600884         1.152270         2.301049
 C        -1.875439        -0.032960         1.698814
 H         0.817980         0.184639        -0.036141
 H        -0.942988         2.743928         0.119760
 H        -1.861752         1.545082        -0.757638
 H        -3.616826         2.657377         0.995287
 H        -1.304973         2.163142         4.006546
 H         0.476330         2.349801         1.865018
 H         0.498238         0.782356         2.841569
 H        -3.642352         0.970763         2.677434
 H        -1.428007        -0.659478         2.480090
 H        -2.339917        -0.772222         1.012436
