19
Iteration:  4233charge 0 multiplicity 1
 O        -0.062815        -0.036255         0.169050
 C        -0.752279         0.722172         1.130856
 C        -1.547838         1.911618         0.318075
 C        -2.647512         2.249133         1.219295
 O        -2.090928         3.160187         2.253557
 C        -1.473494         2.050624         2.939448
 C        -0.098463         1.451757         2.259675
 C        -2.581928         1.150768         2.324888
 C        -1.918259        -0.067188         1.668370
 H         0.651662        -0.396298         0.711145
 H        -0.892970         2.683202         0.116610
 H        -1.914799         1.428301        -0.645001
 H        -3.545616         2.687032         0.672050
 H        -1.609934         2.271980         3.955158
 H         0.557174         2.370440         1.934886
 H         0.532897         0.743120         2.874763
 H        -3.359379         1.062068         3.125332
 H        -1.741742        -0.681813         2.519895
 H        -2.418398        -0.498298         0.767783
