19
Iteration:   650charge 0 multiplicity 1
 O         0.200977        -0.052571         0.319534
 C        -0.764943         0.714983         1.085409
 C        -1.563787         1.813026         0.264181
 C        -2.591354         2.347425         1.255216
 O        -1.969765         3.194498         2.214976
 C        -1.489433         2.010822         2.985516
 C        -0.252968         1.456648         2.416824
 C        -2.740934         1.151683         2.227302
 C        -1.967924        -0.047400         1.604845
 H        -0.016477         0.051686        -0.643022
 H        -1.177444         2.564612        -0.390337
 H        -2.124450         1.129008        -0.396226
 H        -3.468402         2.825132         0.702291
 H        -1.586213         2.299547         4.031658
 H         0.398320         2.301367         2.244558
 H         0.359259         0.813891         3.070775
 H        -3.711077         1.150781         2.785800
 H        -1.788052        -0.907411         2.308303
 H        -2.547753        -0.585976         0.796520
