19
Iteration:   890
 O         0.216223        -0.068601         0.399544
 C        -0.717062         0.755737         1.026463
 C        -1.617763         1.842972         0.243281
 C        -2.670890         2.263657         1.336671
 O        -2.050257         3.193181         2.151882
 C        -1.494283         2.084775         2.955216
 C        -0.204341         1.536348         2.251769
 C        -2.652791         1.139243         2.307777
 C        -1.979028        -0.068634         1.614159
 H        -0.158074        -0.977724         0.429881
 H        -0.889863         2.575942         0.021063
 H        -2.069916         1.440780        -0.582901
 H        -3.652002         2.621252         0.921470
 H        -1.472722         2.204268         4.033052
 H         0.558381         2.225824         1.924854
 H         0.422978         0.827184         2.808748
 H        -3.526342         1.096245         3.003023
 H        -1.811839        -0.968472         2.212545
 H        -2.446492        -0.401265         0.708842
