19
Iteration:  3915
 O         0.113945         0.091440         0.231640
 C        -0.811673         0.692094         1.103997
 C        -1.661232         1.703010         0.253737
 C        -2.671611         2.343185         1.243008
 O        -1.871599         3.244071         2.110104
 C        -1.476063         2.011606         3.041058
 C        -0.219130         1.368795         2.369254
 C        -2.628441         1.205092         2.347435
 C        -1.954052        -0.091368         1.682766
 H         0.339442         0.734228        -0.456051
 H        -1.175244         2.588411        -0.255702
 H        -2.292969         1.067318        -0.459033
 H        -3.612722         2.685045         0.703866
 H        -1.565023         2.184342         4.085326
 H         0.601691         2.112883         2.192949
 H         0.192319         0.501028         2.881694
 H        -3.536806         0.858708         2.935420
 H        -1.577023        -0.837827         2.463916
 H        -2.606640        -0.765084         1.071193
