19
Iteration:  1023charge 0 multiplicity 1
 O         0.081748        -0.123274         0.325692
 C        -0.760416         0.704110         1.140192
 C        -1.508448         1.738990         0.241618
 C        -2.575425         2.265067         1.268632
 O        -2.087224         3.216364         2.252495
 C        -1.528030         2.089475         2.925872
 C        -0.202555         1.620589         2.210031
 C        -2.618626         1.135834         2.305939
 C        -1.997284        -0.055183         1.656888
 H         0.901895         0.363306         0.078069
 H        -0.879607         2.403798        -0.394529
 H        -2.000777         1.192710        -0.553720
 H        -3.596993         2.653225         0.876911
 H        -1.429419         2.189409         4.013685
 H         0.393173         2.539628         1.882100
 H         0.543364         1.008200         2.956588
 H        -3.519584         0.990566         2.932423
 H        -1.852456        -0.995914         2.321655
 H        -2.616397        -0.543095         0.777741
