19
Iteration:   124
 O         0.106951         0.082469         0.236066
 C        -0.754378         0.743750         1.083574
 C        -1.468272         1.797135         0.236907
 C        -2.554654         2.331794         1.198854
 O        -1.894620         3.153300         2.253002
 C        -1.606442         1.911439         2.951150
 C        -0.312257         1.426926         2.457164
 C        -2.701172         1.155181         2.230772
 C        -2.027174        -0.000202         1.616161
 H         0.444177        -0.776616         0.555431
 H        -0.862820         2.570954        -0.113425
 H        -1.861428         1.158222        -0.590825
 H        -3.435667         2.821150         0.713788
 H        -1.646883         2.150099         4.045794
 H         0.335888         2.305318         2.288917
 H         0.314527         0.842469         3.184508
 H        -3.694510         1.122683         2.773789
 H        -1.690199        -0.750284         2.361717
 H        -2.634025        -0.323777         0.783060
