19
Iteration:  3259charge 0 multiplicity 1
 O         0.121666         0.113362         0.199976
 C        -0.821117         0.798108         1.111505
 C        -1.755331         1.667391         0.202224
 C        -2.680180         2.280226         1.271797
 O        -1.909026         3.205227         2.066529
 C        -1.510200         2.003673         2.921480
 C        -0.149225         1.391127         2.415337
 C        -2.615449         1.185547         2.383647
 C        -1.945053        -0.033884         1.732022
 H         0.714818        -0.514546         0.711900
 H        -1.258357         2.558655        -0.451681
 H        -2.253079         1.015503        -0.486459
 H        -3.616052         2.859242         0.913657
 H        -1.415152         2.374427         3.951557
 H         0.648016         2.089391         2.174742
 H         0.537758         0.539174         2.851063
 H        -3.349029         1.155930         3.154490
 H        -1.574065        -0.701574         2.509821
 H        -2.548649        -0.690796         1.067425
