19
Iteration:   905charge 0 multiplicity 1
 O         0.237344        -0.004065         0.441811
 C        -0.885274         0.800223         1.025806
 C        -1.589464         1.871422         0.210187
 C        -2.676750         2.245571         1.210460
 O        -1.971952         3.186450         2.154830
 C        -1.482495         2.018448         2.880154
 C        -0.234012         1.441148         2.278369
 C        -2.621122         1.112311         2.403993
 C        -1.953457        -0.052453         1.670512
 H        -0.161061        -0.715652        -0.089849
 H        -1.168926         2.863176        -0.075588
 H        -2.005877         1.444318        -0.765609
 H        -3.607134         2.619434         0.829886
 H        -1.349780         2.370981         3.907668
 H         0.506141         2.242191         2.230235
 H         0.018682         0.673400         2.982865
 H        -3.531310         0.968880         2.953635
 H        -1.362924        -0.639800         2.371900
 H        -2.693874        -0.701172         1.083304
