19
Iteration:  2751
 O         0.110585         0.041458         0.337251
 C        -0.778659         0.754108         1.096123
 C        -1.661394         1.638892         0.174202
 C        -2.579153         2.243183         1.242504
 O        -1.916543         3.273588         2.195083
 C        -1.475200         2.086421         3.015104
 C        -0.212707         1.407877         2.311118
 C        -2.618004         1.148324         2.296475
 C        -2.009515        -0.065588         1.692594
 H         0.224279         0.512843        -0.514612
 H        -1.099238         2.455735        -0.213464
 H        -2.192379         1.099631        -0.671201
 H        -3.547022         2.584117         0.909269
 H        -1.427202         2.355018         4.031250
 H         0.420660         2.195001         1.893676
 H         0.193691         0.734164         2.983627
 H        -3.520661         1.094533         2.928752
 H        -1.932261        -0.849279         2.437503
 H        -2.629611        -0.499103         0.893198
