19
Iteration:  1597charge 0 multiplicity 1
 O         0.262767         0.113089         0.349169
 C        -0.835268         0.641381         1.061382
 C        -1.645654         1.631407         0.184633
 C        -2.591837         2.296923         1.236808
 O        -2.034217         3.260104         2.160376
 C        -1.499222         2.084257         2.946342
 C        -0.132525         1.494262         2.299497
 C        -2.654039         1.159345         2.356056
 C        -2.064498        -0.147795         1.780309
 H         0.056896         0.036550        -0.604312
 H        -0.922716         2.215961        -0.361288
 H        -2.388695         1.161440        -0.494631
 H        -3.249036         2.805724         0.600542
 H        -1.535175         2.312287         3.990963
 H         0.395287         2.353398         1.915475
 H         0.507769         0.935022         2.950389
 H        -3.482794         1.211942         3.029789
 H        -1.754990        -0.854151         2.599331
 H        -2.630531        -0.781758         0.973691
