19
Iteration:  4429
 O         0.238765         0.113118         0.203858
 C        -0.849937         0.683995         1.037467
 C        -1.709118         1.796763         0.190318
 C        -2.625568         2.254182         1.372141
 O        -1.921303         3.228308         2.122084
 C        -1.462391         2.032533         2.933602
 C        -0.220360         1.425696         2.310293
 C        -2.650624         1.149506         2.414817
 C        -2.024727        -0.103902         1.735378
 H         1.053263         0.041327         0.740956
 H        -1.128559         2.553079        -0.266796
 H        -2.137173         1.174065        -0.666892
 H        -3.638976         2.717530         1.058170
 H        -1.485485         2.268200         3.946551
 H         0.481984         2.077240         1.953683
 H         0.123685         0.525948         2.834085
 H        -3.531421         0.934566         3.096611
 H        -1.950580        -0.981958         2.363703
 H        -2.775896        -0.350619         0.917246
