19
Iteration:  4155charge 0 multiplicity 1
 O         0.140300         0.024893         0.272766
 C        -0.814454         0.799347         1.054903
 C        -1.625107         1.784744         0.242778
 C        -2.661826         2.295339         1.300307
 O        -1.894907         3.125493         2.133772
 C        -1.475337         1.982509         3.003394
 C        -0.234244         1.388011         2.338001
 C        -2.642077         1.191025         2.390886
 C        -1.990016        -0.034441         1.665933
 H         0.325199         0.619481        -0.467990
 H        -1.025897         2.637253        -0.086845
 H        -2.046163         1.286645        -0.644280
 H        -3.667115         2.646775         0.876849
 H        -1.537568         2.265277         4.020831
 H         0.617685         2.102882         1.981990
 H         0.321291         0.669456         3.028497
 H        -3.607699         1.097098         2.816263
 H        -1.667504        -0.917538         2.219442
 H        -2.745016        -0.414543         0.927179
