19
Iteration:  3937
 O         0.172535         0.036285         0.283276
 C        -0.791471         0.776083         1.054046
 C        -1.593021         1.770224         0.185606
 C        -2.580506         2.304178         1.320163
 O        -1.947815         3.178242         2.186253
 C        -1.428766         1.944004         2.956266
 C        -0.231579         1.462403         2.259473
 C        -2.691751         1.131555         2.350819
 C        -2.089065        -0.050182         1.807091
 H        -0.059299         0.286176        -0.641148
 H        -1.065485         2.748736        -0.045462
 H        -2.027506         1.254453        -0.755341
 H        -3.462965         2.625100         0.713357
 H        -1.316487         2.134715         3.987088
 H         0.435915         2.266714         1.837200
 H         0.197729         0.749699         2.967920
 H        -3.595669         1.199877         3.017832
 H        -1.695120        -0.921498         2.403438
 H        -2.555495        -0.555817         0.934775
