19
Iteration:   369
 O         0.142810        -0.122925         0.324847
 C        -0.812358         0.694791         1.012939
 C        -1.531253         1.841164         0.198751
 C        -2.536728         2.363855         1.226113
 O        -2.019374         3.199402         2.349575
 C        -1.568231         2.006492         2.964465
 C        -0.252308         1.569402         2.349044
 C        -2.692078         1.121558         2.241174
 C        -1.983519        -0.096172         1.598847
 H         1.122641        -0.019601         0.421314
 H        -0.886797         2.765386        -0.109695
 H        -2.108612         1.492536        -0.671009
 H        -3.287234         3.041379         0.775868
 H        -1.614556         2.031703         4.052516
 H         0.458326         2.379324         1.991544
 H         0.342244         0.723484         2.841839
 H        -3.603608         1.126159         2.868025
 H        -1.665216        -0.929784         2.273605
 H        -2.647546        -0.571356         0.800153
