19
Iteration:  2299charge 0 multiplicity 1
 O         0.003921        -0.151159         0.365640
 C        -0.770328         0.765174         1.053179
 C        -1.690677         1.773935         0.165714
 C        -2.615715         2.209113         1.247764
 O        -2.084440         3.192756         2.148125
 C        -1.486193         2.148283         2.913033
 C        -0.198055         1.593489         2.242867
 C        -2.521141         1.133608         2.348918
 C        -1.818421        -0.075180         1.836103
 H         0.577492         0.335489        -0.287445
 H        -1.100054         2.665730        -0.243980
 H        -2.258276         1.398685        -0.638281
 H        -3.622988         2.335820         0.940877
 H        -1.373560         2.491559         4.009286
 H         0.624257         2.441268         1.965353
 H         0.188998         0.796424         2.950404
 H        -3.421256         1.132849         2.851532
 H        -1.289597        -0.786908         2.521883
 H        -2.266120        -0.782030         1.147913
