19
Iteration:  4160
 O         0.134820         0.064262         0.313235
 C        -0.770102         0.785332         1.040448
 C        -1.642813         1.743683         0.236454
 C        -2.679356         2.278802         1.279041
 O        -1.883209         3.095037         2.155688
 C        -1.484000         1.983147         3.003733
 C        -0.179400         1.405021         2.304572
 C        -2.660288         1.244843         2.383670
 C        -2.046674        -0.041991         1.639439
 H         0.473579         0.601162        -0.431958
 H        -1.104443         2.662973        -0.081790
 H        -2.183483         1.324882        -0.650152
 H        -3.618033         2.655633         0.959760
 H        -1.480700         2.166892         4.130193
 H         0.705878         1.956784         1.950742
 H         0.234282         0.681220         3.003523
 H        -3.644817         1.086336         2.931223
 H        -1.600903        -0.796449         2.336515
 H        -2.679630        -0.396425         0.830639
