19
Iteration:  2022
 O         0.210944        -0.125720         0.276811
 C        -0.762840         0.672533         1.024835
 C        -1.658907         1.619218         0.206967
 C        -2.663609         2.305886         1.298162
 O        -2.159280         3.271720         2.247244
 C        -1.454275         2.163172         2.861037
 C        -0.238116         1.578708         2.098107
 C        -2.557341         1.211283         2.394449
 C        -1.935828        -0.072969         1.804558
 H         1.016378        -0.103417         0.805410
 H        -1.259345         2.455032        -0.258783
 H        -2.337245         1.043687        -0.438880
 H        -3.609874         2.644570         0.874823
 H        -1.134591         2.348797         3.911949
 H         0.353291         2.313158         1.649481
 H         0.189148         1.063154         2.922677
 H        -3.412754         0.961984         3.164376
 H        -1.465615        -0.600974         2.646830
 H        -2.348363        -0.913183         1.199864
