19
Iteration:  2420charge 0 multiplicity 1
 O         0.113865        -0.127306         0.371925
 C        -0.836875         0.732241         1.035040
 C        -1.557381         1.798084         0.257653
 C        -2.582286         2.184413         1.237828
 O        -2.033906         3.240621         2.199809
 C        -1.472023         2.110017         2.907886
 C        -0.282391         1.570614         2.155824
 C        -2.582461         1.140092         2.431485
 C        -1.961185        -0.078986         1.736409
 H         0.251529         0.255803        -0.501927
 H        -0.842120         2.621079        -0.085175
 H        -1.913078         1.308063        -0.653423
 H        -3.540275         2.412830         0.817615
 H        -1.234429         2.455025         3.980404
 H         0.254069         2.480043         1.669248
 H         0.275765         0.962149         2.848908
 H        -3.496425         1.054513         3.007285
 H        -1.648217        -0.736176         2.608385
 H        -2.520984        -0.827208         1.147685
