19
Iteration:  3672charge 0 multiplicity 1
 O         0.114128         0.044746         0.238083
 C        -0.829298         0.728992         1.010214
 C        -1.682306         1.746202         0.221975
 C        -2.694244         2.314512         1.312424
 O        -1.900497         3.213854         2.143422
 C        -1.503116         2.087837         2.914107
 C        -0.212958         1.424754         2.311951
 C        -2.659087         1.139815         2.419211
 C        -1.890817        -0.069597         1.709227
 H         0.759258        -0.373817         0.840409
 H        -1.004784         2.530340        -0.373589
 H        -2.100557         1.146482        -0.619703
 H        -3.617758         2.775900         0.866335
 H        -1.305256         2.346863         3.963047
 H         0.433132         2.215096         1.984920
 H         0.232146         0.633554         2.956595
 H        -3.463693         0.794844         3.028427
 H        -1.546144        -0.751023         2.574451
 H        -2.572199        -0.637772         1.005382
