19
Iteration:  1376charge 0 multiplicity 1
 O         0.205686        -0.054120         0.392322
 C        -0.756150         0.743259         1.082546
 C        -1.531988         1.792782         0.238671
 C        -2.667288         2.255104         1.255549
 O        -2.099483         3.232333         2.164503
 C        -1.492772         2.056726         2.888203
 C        -0.158207         1.504487         2.334167
 C        -2.602680         1.154679         2.264612
 C        -2.026653        -0.059316         1.700670
 H        -0.265479        -0.369368        -0.410762
 H        -0.779062         2.506366        -0.054215
 H        -2.056267         1.530908        -0.772933
 H        -3.559578         2.623346         0.771873
 H        -1.502524         2.227938         3.977406
 H         0.588807         2.195007         2.029944
 H         0.212447         0.800228         3.045295
 H        -3.417061         0.969710         3.010601
 H        -1.814401        -0.822739         2.483720
 H        -2.700743        -0.601119         0.967396
