19
Iteration:  2281
 O         0.002727        -0.113832         0.274596
 C        -0.826570         0.802421         1.062186
 C        -1.562281         1.711758         0.234142
 C        -2.727582         2.189031         1.261160
 O        -2.079372         3.210048         2.124374
 C        -1.474951         2.070328         2.898004
 C        -0.111763         1.606811         2.190817
 C        -2.607637         1.125297         2.431555
 C        -1.844451        -0.008570         1.829320
 H         0.965885         0.036678         0.421830
 H        -0.987872         2.550128        -0.131091
 H        -1.784780         0.992116        -0.608501
 H        -3.543690         2.759399         0.711015
 H        -1.306778         2.292737         3.911632
 H         0.214265         2.516237         1.710629
 H         0.487334         1.078026         2.916672
 H        -3.456810         0.872109         3.160462
 H        -1.423197        -0.690938         2.551326
 H        -2.515084        -0.632747         1.208840
