19
Iteration:  1238
 O         0.147700        -0.064925         0.394135
 C        -0.794320         0.768497         1.088900
 C        -1.614380         1.713724         0.194864
 C        -2.654495         2.323185         1.252971
 O        -1.947559         3.179124         2.110960
 C        -1.558566         2.010413         2.967831
 C        -0.193378         1.565934         2.411819
 C        -2.626033         1.118851         2.288636
 C        -1.927534        -0.039591         1.638113
 H        -0.004713         0.083240        -0.546320
 H        -1.031111         2.507977        -0.348885
 H        -2.195748         1.197342        -0.567189
 H        -3.526491         2.830539         0.796951
 H        -1.380520         2.273057         4.031454
 H         0.192641         2.561584         2.110330
 H         0.537752         1.046591         3.139642
 H        -3.480132         0.775749         2.983932
 H        -1.668816        -0.812290         2.410324
 H        -2.643378        -0.545776         0.921247
