19
Iteration:  2524charge 0 multiplicity 1
 O         0.072927        -0.120977         0.381307
 C        -0.790819         0.749000         1.027097
 C        -1.597824         1.752509         0.198694
 C        -2.595661         2.318597         1.253833
 O        -2.025254         3.230630         2.219309
 C        -1.500116         2.106748         2.957966
 C        -0.247702         1.477704         2.262094
 C        -2.608438         1.158444         2.329867
 C        -1.876773        -0.081923         1.704724
 H         0.217371         0.194900        -0.531287
 H        -0.939157         2.504739        -0.233697
 H        -2.259118         1.302539        -0.538321
 H        -3.529388         2.753383         0.791692
 H        -1.502321         2.396709         3.978482
 H         0.467860         2.228393         1.927691
 H         0.303368         0.760789         3.055038
 H        -3.461264         0.955275         2.959698
 H        -1.469016        -0.802942         2.425829
 H        -2.412451        -0.542734         0.877266
