19
Iteration:  2026charge 0 multiplicity 1
 O         0.220537        -0.134055         0.266632
 C        -0.800959         0.661326         1.062070
 C        -1.663143         1.615338         0.229302
 C        -2.692522         2.301145         1.318777
 O        -2.141969         3.263407         2.240193
 C        -1.434572         2.154458         2.850343
 C        -0.266464         1.607569         2.084041
 C        -2.554239         1.206383         2.395014
 C        -1.905736        -0.078648         1.779855
 H         1.020692        -0.176171         0.842871
 H        -1.050184         2.539805        -0.265703
 H        -2.306569         1.028926        -0.458033
 H        -3.611331         2.664963         0.872037
 H        -1.304287         2.353426         3.978674
 H         0.429525         2.350155         1.526056
 H         0.172997         1.171291         2.995981
 H        -3.344485         1.051772         3.121438
 H        -1.473944        -0.602951         2.659265
 H        -2.411712        -0.781871         1.105845
