19
Iteration:  3376charge 0 multiplicity 1
 O         0.207097         0.109902         0.131733
 C        -0.826882         0.717387         1.082270
 C        -1.671736         1.724099         0.265561
 C        -2.689997         2.301093         1.269262
 O        -1.917994         3.244255         2.115993
 C        -1.452651         2.022205         2.919675
 C        -0.225739         1.331300         2.330689
 C        -2.689649         1.251049         2.364990
 C        -2.017937        -0.079015         1.818559
 H         0.847009        -0.353230         0.710242
 H        -0.999000         2.534378        -0.288801
 H        -2.210118         1.104994        -0.488751
 H        -3.565178         2.543130         0.721348
 H        -1.513361         2.203581         3.971842
 H         0.524614         2.142000         2.147505
 H         0.505139         0.716071         2.921236
 H        -3.575236         1.061635         2.904646
 H        -1.493676        -0.739006         2.606579
 H        -2.679480        -0.805927         1.333938
