19
Iteration:  1075
 O         0.229119         0.049830         0.392902
 C        -0.788090         0.790694         1.111411
 C        -1.741372         1.753240         0.232347
 C        -2.697842         2.279075         1.205507
 O        -1.901294         3.187792         2.048033
 C        -1.502557         2.052188         2.892870
 C        -0.227412         1.352812         2.377119
 C        -2.677732         1.165624         2.394579
 C        -1.925867        -0.066271         1.698615
 H         0.320412         0.188169        -0.572304
 H        -1.288787         2.745918        -0.082735
 H        -2.084184         1.270782        -0.727710
 H        -3.569722         2.860626         0.720047
 H        -1.379727         2.392599         3.962910
 H         0.580284         2.076066         2.379828
 H         0.109174         0.576604         3.011845
 H        -3.573710         0.942682         3.096566
 H        -1.623518        -0.884107         2.369218
 H        -2.427658        -0.617855         0.966310
