19
Iteration:  4359charge 0 multiplicity 1
 O        -0.000770        -0.155085         0.206979
 C        -0.738663         0.725529         1.066580
 C        -1.535099         1.849818         0.319041
 C        -2.645941         2.244854         1.364991
 O        -2.087711         3.286442         2.223166
 C        -1.517812         2.140520         2.943399
 C        -0.103246         1.483463         2.240119
 C        -2.638095         1.083190         2.289829
 C        -1.928110        -0.114293         1.688445
 H         0.589242         0.445352        -0.291269
 H        -0.788624         2.690150         0.104807
 H        -2.037097         1.639111        -0.581278
 H        -3.635669         2.509982         1.054416
 H        -1.401443         2.404004         4.027725
 H         0.527612         2.329510         1.869659
 H         0.427545         0.742842         2.971277
 H        -3.525932         0.918703         2.850278
 H        -1.608025        -0.851812         2.433941
 H        -2.285638        -0.611027         0.856203
