19
Iteration:   301
 O         0.210603         0.170065         0.247312
 C        -0.831216         0.732549         1.041886
 C        -1.595699         1.694139         0.243635
 C        -2.526717         2.334428         1.231066
 O        -1.906491         3.252598         2.232821
 C        -1.604110         1.963968         2.986122
 C        -0.284271         1.347438         2.358189
 C        -2.687432         1.195198         2.221131
 C        -1.992480        -0.064631         1.703714
 H         0.344637        -0.775294         0.437471
 H        -0.888312         2.532675        -0.129906
 H        -2.089778         1.337588        -0.725002
 H        -3.376204         2.779818         0.663065
 H        -1.809795         1.882294         4.054721
 H         0.367538         2.178387         2.097847
 H         0.060880         0.572050         3.084284
 H        -3.513060         1.109419         2.858262
 H        -1.615125        -0.663177         2.565032
 H        -2.505896        -0.858664         1.105814
