19
Iteration:   347
 O         0.038307        -0.107996         0.328478
 C        -0.778826         0.706753         1.047169
 C        -1.410198         1.832173         0.340100
 C        -2.641469         2.252071         1.285003
 O        -2.080118         3.223109         2.256380
 C        -1.538695         1.967643         2.943299
 C        -0.145227         1.526629         2.332414
 C        -2.617990         1.133781         2.280109
 C        -1.989167         0.081250         1.467109
 H         0.839914        -0.308206         0.795963
 H        -0.833764         2.747586        -0.110867
 H        -1.784719         1.278501        -0.525274
 H        -3.655538         2.393897         0.856296
 H        -1.397245         2.124762         4.005292
 H         0.330651         2.460858         1.891764
 H         0.409424         0.830737         3.027564
 H        -3.575432         0.957671         2.760337
 H        -1.942415        -0.820550         2.098396
 H        -2.695660        -0.229900         0.628675
