19
Iteration:  2237charge 0 multiplicity 1
 O         0.188199         0.105909         0.373577
 C        -0.795568         0.792166         1.052904
 C        -1.757216         1.600364         0.108508
 C        -2.690029         2.234882         1.224051
 O        -2.004170         3.222119         2.128268
 C        -1.421266         2.140717         2.881628
 C        -0.249024         1.465598         2.198811
 C        -2.598177         1.186378         2.523777
 C        -1.849711        -0.085415         1.796516
 H         0.135017        -0.876139         0.255308
 H        -1.231806         2.402166        -0.473001
 H        -2.340026         0.824460        -0.545567
 H        -3.760595         2.609980         1.099489
 H        -1.139698         2.469561         3.843012
 H         0.460902         2.246853         1.891797
 H         0.175736         0.702629         2.837909
 H        -3.513102         1.116630         3.187636
 H        -1.294663        -0.813333         2.430496
 H        -2.528454        -0.653706         1.134470
