19
Iteration:  3616charge 0 multiplicity 1
 O         0.134823         0.045833         0.191782
 C        -0.811607         0.684715         1.027336
 C        -1.677973         1.710519         0.311514
 C        -2.640952         2.321318         1.339620
 O        -1.982068         3.287265         2.164499
 C        -1.495973         2.073063         2.907780
 C        -0.221825         1.438889         2.282472
 C        -2.585952         1.216091         2.343140
 C        -1.914800        -0.160857         1.718287
 H         0.708201        -0.545135         0.685544
 H        -1.063310         2.529145        -0.245059
 H        -2.280951         1.274197        -0.551734
 H        -3.599168         2.620534         0.856430
 H        -1.361970         2.251152         4.023707
 H         0.609206         2.112086         1.969370
 H         0.167674         0.706881         3.023351
 H        -3.519430         1.105709         2.922056
 H        -1.807088        -0.841044         2.632723
 H        -2.535339        -0.657748         0.940400
