19
Iteration:  3344charge 0 multiplicity 1
 O         0.066494        -0.095459         0.275507
 C        -0.865591         0.746364         1.088412
 C        -1.596412         1.769905         0.175145
 C        -2.653431         2.294523         1.279795
 O        -1.961922         3.206585         2.200178
 C        -1.448460         2.032838         2.947811
 C        -0.241240         1.570325         2.282428
 C        -2.572697         1.132389         2.378487
 C        -1.927647        -0.068936         1.647270
 H         0.700633        -0.437242         0.906843
 H        -0.890880         2.686111        -0.181495
 H        -2.262643         1.273093        -0.553630
 H        -3.593828         2.707517         0.918288
 H        -1.455294         2.361464         3.959822
 H         0.248525         2.453401         1.846318
 H         0.476250         0.946304         2.816578
 H        -3.450765         0.953043         2.944306
 H        -1.482534        -0.872681         2.291628
 H        -2.726400        -0.299577         0.971410
