19
Iteration:  4224charge 0 multiplicity 1
 O        -0.042668        -0.042646         0.200219
 C        -0.731466         0.710530         1.105946
 C        -1.515496         1.912844         0.218920
 C        -2.669197         2.324800         1.264788
 O        -2.090694         3.142788         2.229874
 C        -1.494465         1.952361         2.943763
 C        -0.123736         1.476759         2.256472
 C        -2.613861         1.163459         2.338255
 C        -1.925716        -0.020541         1.715726
 H         0.851915        -0.307590         0.435608
 H        -0.849997         2.668153        -0.134560
 H        -1.862918         1.286024        -0.649344
 H        -3.630579         2.752943         0.982822
 H        -1.343214         2.060294         4.018866
 H         0.605406         2.431022         2.003634
 H         0.491891         0.818538         3.006357
 H        -3.533716         1.126411         3.013651
 H        -1.559309        -0.830275         2.402294
 H        -2.588702        -0.569803         1.033932
