19
Iteration:  4529
 O         0.155509         0.018750         0.296221
 C        -0.789435         0.725170         1.054792
 C        -1.691473         1.830059         0.253361
 C        -2.682324         2.264530         1.382469
 O        -1.951614         3.165367         2.177955
 C        -1.419057         2.066813         2.940347
 C        -0.216744         1.526219         2.233970
 C        -2.594205         1.102642         2.335026
 C        -2.007021        -0.041490         1.607849
 H         0.239357        -0.896756         0.628848
 H        -1.001013         2.673334        -0.006726
 H        -2.152023         1.405543        -0.686145
 H        -3.626746         2.604659         0.901819
 H        -1.484963         2.132864         4.013191
 H         0.487912         2.261403         1.756711
 H         0.286576         0.916585         3.111633
 H        -3.360184         0.940508         3.095770
 H        -1.632065        -0.864062         2.228097
 H        -2.640963        -0.519973         0.799943
