19
Iteration:  2252
 O         0.222306         0.060689         0.279838
 C        -0.894844         0.669319         1.015784
 C        -1.717111         1.642308         0.226020
 C        -2.643584         2.213330         1.326867
 O        -2.043767         3.274556         2.107279
 C        -1.448174         2.158491         2.917052
 C        -0.205798         1.596719         2.192238
 C        -2.510850         1.134977         2.398035
 C        -1.932202        -0.099375         1.811667
 H         0.346157        -0.793903         0.724100
 H        -1.122829         2.333200        -0.337214
 H        -2.363872         1.066363        -0.551798
 H        -3.546649         2.575463         0.804307
 H        -1.391690         2.373125         4.019101
 H         0.451234         2.317770         1.763911
 H         0.284503         0.852517         2.878996
 H        -3.403174         0.938304         3.093708
 H        -1.627966        -0.824150         2.647702
 H        -2.675693        -0.698675         1.230754
