19
Iteration:  2202
 O         0.138433        -0.005629         0.319496
 C        -0.811752         0.712078         1.097014
 C        -1.679477         1.664805         0.277605
 C        -2.705165         2.197600         1.284001
 O        -1.944805         3.261138         2.011030
 C        -1.513111         2.121738         2.874924
 C        -0.218578         1.587113         2.234690
 C        -2.620915         1.141774         2.475742
 C        -1.855348        -0.157973         1.819769
 H         0.053830         0.285358        -0.623737
 H        -1.065523         2.458769        -0.296637
 H        -2.082736         1.036115        -0.526710
 H        -3.710935         2.579344         1.062315
 H        -1.303349         2.457571         3.905694
 H         0.284825         2.558896         1.781513
 H         0.555478         1.126338         2.850517
 H        -3.455545         1.048517         3.080511
 H        -1.475739        -0.757156         2.650681
 H        -2.472741        -0.808525         1.189492
