19
Iteration:  2977charge 0 multiplicity 1
 O         0.183638         0.146793         0.244245
 C        -0.780227         0.776587         1.149336
 C        -1.648709         1.754548         0.218661
 C        -2.612992         2.248451         1.192784
 O        -1.962969         3.164079         2.120986
 C        -1.450877         2.030144         2.949626
 C        -0.177594         1.448405         2.299225
 C        -2.629976         1.170075         2.423469
 C        -2.097849        -0.114532         1.770088
 H        -0.110654        -0.716293        -0.145924
 H        -1.168997         2.444638        -0.408897
 H        -2.037556         1.011775        -0.547294
 H        -3.588628         2.636205         0.802294
 H        -1.221366         2.350011         4.021167
 H         0.602703         2.226946         1.996097
 H         0.473392         0.839116         2.912222
 H        -3.433182         1.292765         3.155471
 H        -1.915731        -0.926571         2.487641
 H        -2.774594        -0.606793         0.971593
