19
Iteration:   920
 O         0.199185         0.087896         0.391396
 C        -0.795759         0.724128         1.045309
 C        -1.629620         1.794032         0.130774
 C        -2.632041         2.273165         1.243945
 O        -1.959341         3.195387         2.134901
 C        -1.533671         2.059890         2.968945
 C        -0.283225         1.389012         2.319248
 C        -2.630126         1.151426         2.298828
 C        -1.920676        -0.078818         1.807777
 H        -0.045912        -0.042938        -0.534975
 H        -0.855607         2.528823        -0.187850
 H        -2.093505         1.324838        -0.812942
 H        -3.596802         2.739634         0.913093
 H        -1.560580         2.201772         4.091375
 H         0.513273         2.081974         1.934258
 H         0.193561         0.520086         2.906474
 H        -3.550400         1.006786         2.946509
 H        -1.622409        -0.818713         2.609967
 H        -2.540136        -0.542479         1.066347
