19
Iteration:  4919
 O         0.143526        -0.044022         0.284167
 C        -0.817716         0.707003         1.033727
 C        -1.597806         1.858402         0.230252
 C        -2.595872         2.266419         1.294579
 O        -2.093300         3.189401         2.263936
 C        -1.465743         2.134734         2.933578
 C        -0.123088         1.401253         2.235192
 C        -2.585982         1.155974         2.334307
 C        -1.975683        -0.060516         1.715308
 H        -0.093997        -0.055860        -0.650643
 H        -1.059852         2.681739        -0.221284
 H        -2.228817         1.342595        -0.502865
 H        -3.549526         2.528932         0.835523
 H        -1.366148         2.197541         4.028240
 H         0.572812         2.205902         2.053215
 H         0.195940         0.779530         3.096221
 H        -3.481697         1.131929         3.019121
 H        -1.750529        -0.856858         2.398896
 H        -2.523485        -0.559269         0.981109
