19
Iteration:  2208charge 0 multiplicity 1
 O         0.157620         0.010857         0.335368
 C        -0.768036         0.772073         1.085416
 C        -1.737338         1.648342         0.275885
 C        -2.702541         2.227443         1.285887
 O        -1.944738         3.233796         1.976147
 C        -1.489213         2.106829         2.888655
 C        -0.179329         1.587116         2.267170
 C        -2.586443         1.133339         2.417296
 C        -1.899697        -0.121206         1.813328
 H         0.055668        -0.086371        -0.627122
 H        -1.266690         2.492317        -0.117676
 H        -2.203672         1.022136        -0.527585
 H        -3.741995         2.579597         1.246018
 H        -1.417225         2.424888         3.954243
 H         0.181352         2.461219         1.830030
 H         0.484192         0.917450         2.894606
 H        -3.540135         0.900053         3.069330
 H        -1.383534        -0.728349         2.600373
 H        -2.643520        -0.859732         1.411980
