19
Iteration:  3007
 O         0.212002         0.092947         0.323168
 C        -0.837143         0.715455         1.073888
 C        -1.736361         1.730787         0.256720
 C        -2.595185         2.305673         1.279569
 O        -1.864047         3.223932         2.068101
 C        -1.485726         2.052496         2.958716
 C        -0.293108         1.423238         2.278997
 C        -2.659143         1.140660         2.389142
 C        -1.914381        -0.105931         1.739790
 H        -0.017707         0.127338        -0.617172
 H        -1.067414         2.533238        -0.341282
 H        -2.300780         1.153890        -0.510027
 H        -3.654213         2.718892         0.926529
 H        -1.431021         2.287640         4.060845
 H         0.352158         2.208190         1.971092
 H         0.112385         0.563232         2.822338
 H        -3.579798         1.089181         3.025056
 H        -1.593509        -0.776168         2.599316
 H        -2.551610        -0.837673         1.208535
