19
Iteration:  4599
 O         0.146736        -0.001811         0.187154
 C        -0.803376         0.682049         1.034588
 C        -1.612663         1.795945         0.280318
 C        -2.643940         2.281631         1.336608
 O        -1.942559         3.198296         2.179681
 C        -1.522850         2.016689         2.987892
 C        -0.186380         1.511240         2.241575
 C        -2.664574         1.155256         2.394538
 C        -2.003831        -0.071561         1.618894
 H         0.940978        -0.328974         0.661737
 H        -1.202272         2.757997        -0.081001
 H        -2.164188         1.350270        -0.560779
 H        -3.564224         2.713928         0.979796
 H        -1.341564         2.257901         4.100141
 H         0.448407         2.434071         1.835930
 H         0.365046         0.847507         2.867142
 H        -3.563528         1.001067         3.035501
 H        -1.675196        -0.604933         2.586060
 H        -2.686924        -0.747324         1.090546
