19
Iteration:  1045charge 0 multiplicity 1
 O         0.132583        -0.004193         0.325011
 C        -0.819450         0.729892         1.074423
 C        -1.627138         1.688743         0.192151
 C        -2.551889         2.322496         1.190217
 O        -1.954339         3.197460         2.188621
 C        -1.573888         2.030451         2.965714
 C        -0.273466         1.493725         2.316351
 C        -2.652924         1.175768         2.336970
 C        -1.914770        -0.092805         1.754064
 H         0.494635         0.596962        -0.338543
 H        -1.026343         2.542415        -0.217295
 H        -2.049525         1.268132        -0.704761
 H        -3.443494         2.733727         0.597742
 H        -1.539101         2.238908         4.038317
 H         0.329430         2.421710         2.033111
 H         0.448886         0.776325         2.939639
 H        -3.564815         0.989028         2.895762
 H        -1.537413        -0.686680         2.639336
 H        -2.431125        -0.874144         1.070478
