19
Iteration:  2461charge 0 multiplicity 1
 O         0.122409         0.086781         0.338232
 C        -0.798800         0.739101         1.100177
 C        -1.665453         1.677185         0.165229
 C        -2.635867         2.261452         1.298269
 O        -1.957462         3.221547         2.179063
 C        -1.478093         2.129979         2.888961
 C        -0.199982         1.482994         2.293538
 C        -2.603519         1.142989         2.317033
 C        -1.950547        -0.070875         1.677285
 H         0.027614        -0.865189         0.581447
 H        -1.318082         2.420069        -0.652073
 H        -2.393654         1.046709        -0.378461
 H        -3.557299         2.680686         1.009885
 H        -1.444589         2.269962         4.027416
 H         0.629900         2.110454         2.114171
 H         0.277442         0.718638         2.901181
 H        -3.404636         1.111975         2.955464
 H        -1.454559        -0.749168         2.416991
 H        -2.438275        -0.737578         0.984920
