19
Iteration:   622charge 0 multiplicity 1
 O         0.149178        -0.031119         0.366074
 C        -0.830601         0.703310         1.022638
 C        -1.402241         1.956983         0.317582
 C        -2.599758         2.268116         1.198449
 O        -2.088618         3.184600         2.270204
 C        -1.528173         2.068529         2.874184
 C        -0.275293         1.385263         2.237917
 C        -2.601725         1.139874         2.326023
 C        -1.947757        -0.064114         1.671768
 H        -0.232557        -0.841643        -0.042488
 H        -0.957178         2.986774         0.109839
 H        -1.494491         1.644906        -0.765938
 H        -3.489434         2.579249         0.717457
 H        -1.670475         2.270666         3.941284
 H         0.583612         2.086745         2.064268
 H         0.109456         0.581852         2.923804
 H        -3.539746         1.232087         2.894531
 H        -1.708145        -0.867951         2.311248
 H        -2.768437        -0.341846         1.013688
