19
Iteration:  2142charge 0 multiplicity 1
 O         0.077526        -0.124054         0.356346
 C        -0.794969         0.768607         1.009510
 C        -1.773517         1.731043         0.235329
 C        -2.737982         2.198585         1.341219
 O        -1.995234         3.160484         2.088228
 C        -1.479719         2.154009         2.867072
 C        -0.177127         1.699484         2.125488
 C        -2.500965         1.086626         2.434218
 C        -1.833277        -0.052340         1.769758
 H         0.819842        -0.198411         0.999607
 H        -1.126954         2.471885        -0.016621
 H        -2.129727         1.143027        -0.601616
 H        -3.692997         2.494146         0.851178
 H        -1.248924         2.610756         3.844194
 H         0.382271         2.625817         1.899349
 H         0.312085         0.963983         2.930420
 H        -3.568576         0.970728         2.968724
 H        -1.428513        -0.691910         2.589101
 H        -2.496177        -0.727070         1.149205
