19
Iteration:   944
 O         0.201961         0.064183         0.251893
 C        -0.675312         0.695065         1.092829
 C        -1.621256         1.617582         0.302040
 C        -2.595902         2.282098         1.245450
 O        -1.915586         3.217394         2.173942
 C        -1.529972         2.069857         2.911667
 C        -0.256054         1.514582         2.382758
 C        -2.754792         1.160353         2.281278
 C        -2.050050        -0.095484         1.726433
 H         0.301663         0.663649        -0.527553
 H        -1.148119         2.325371        -0.406125
 H        -2.194384         0.970833        -0.360476
 H        -3.301953         2.927081         0.619287
 H        -1.512539         2.073439         4.018544
 H         0.267039         2.404455         1.939666
 H         0.346653         0.883927         3.159658
 H        -3.583753         0.911423         3.021028
 H        -1.649628        -0.777799         2.517497
 H        -2.728355        -0.535900         1.024562
