19
Iteration:  1611
 O         0.252397         0.014678         0.387391
 C        -0.790844         0.689701         1.172013
 C        -1.583112         1.673228         0.325478
 C        -2.659470         2.322786         1.215519
 O        -2.021164         3.202953         2.129365
 C        -1.416267         2.078622         2.888561
 C        -0.230334         1.551281         2.202504
 C        -2.662286         1.135741         2.361546
 C        -2.072157        -0.127542         1.701052
 H         0.076399         0.329967        -0.529005
 H        -1.043143         2.596336        -0.240574
 H        -2.007590         1.029895        -0.471594
 H        -3.627631         2.715724         0.863212
 H        -1.272325         2.349914         3.967955
 H         0.318102         2.362018         1.628629
 H         0.433727         1.021710         2.839544
 H        -3.487371         0.960768         3.078331
 H        -1.800572        -0.965548         2.406730
 H        -2.738315        -0.489747         0.922647
