19
Iteration:  1251charge 0 multiplicity 1
 O         0.154701        -0.101188         0.392744
 C        -0.733380         0.698470         1.152910
 C        -1.589758         1.827180         0.262333
 C        -2.643127         2.219932         1.206533
 O        -2.047668         3.230328         2.190815
 C        -1.477519         2.065468         2.875945
 C        -0.173404         1.548957         2.291989
 C        -2.656635         1.132681         2.314426
 C        -1.988829        -0.051126         1.687286
 H         0.033960         0.098443        -0.558625
 H        -0.957586         2.739370        -0.049736
 H        -1.978551         1.267859        -0.670559
 H        -3.633204         2.575000         0.766576
 H        -1.638354         2.238240         3.954795
 H         0.486560         2.345262         1.897796
 H         0.435869         0.971608         2.942933
 H        -3.537863         1.057047         2.949620
 H        -1.805959        -0.961375         2.319969
 H        -2.391192        -0.418818         0.749419
