19
Iteration:  2519
 O         0.058931        -0.078413         0.378201
 C        -0.814562         0.730563         1.073320
 C        -1.583874         1.732504         0.221436
 C        -2.608402         2.312165         1.229137
 O        -2.024999         3.249818         2.190634
 C        -1.463050         2.085489         2.947315
 C        -0.198893         1.475467         2.246516
 C        -2.639485         1.127725         2.322814
 C        -1.910289        -0.088053         1.724990
 H         0.395047         0.293280        -0.446427
 H        -0.957391         2.608655        -0.074323
 H        -2.271451         1.372266        -0.589581
 H        -3.475938         2.826744         0.807214
 H        -1.256745         2.422851         4.032813
 H         0.494477         2.340475         2.037383
 H         0.109541         0.681249         2.802417
 H        -3.586050         0.864468         2.932924
 H        -1.431304        -0.736644         2.473754
 H        -2.371623        -0.648701         0.868312
