19
Iteration:  2642
 O         0.138562         0.025309         0.354781
 C        -0.891983         0.715027         1.035290
 C        -1.562260         1.876463         0.172484
 C        -2.604817         2.338548         1.206913
 O        -1.956175         3.166246         2.231256
 C        -1.477523         2.067655         2.981526
 C        -0.251404         1.449498         2.236353
 C        -2.646798         1.103542         2.320925
 C        -1.938318        -0.091419         1.750442
 H        -0.093523        -0.908126         0.247188
 H        -0.787497         2.515132        -0.166502
 H        -2.095998         1.397714        -0.720029
 H        -3.582917         2.762702         0.737643
 H        -1.308398         2.254816         4.013313
 H         0.479014         2.177278         1.844787
 H         0.295326         0.818913         2.850410
 H        -3.642711         0.982334         2.854568
 H        -1.477005        -0.657630         2.559038
 H        -2.652607        -0.632781         1.084988
