19
Iteration:  2635charge 0 multiplicity 1
 O         0.104156         0.062666         0.346533
 C        -0.903746         0.724858         1.083953
 C        -1.619358         1.817640         0.156892
 C        -2.588894         2.355530         1.219619
 O        -1.920382         3.170687         2.215482
 C        -1.508928         2.056836         2.976973
 C        -0.153525         1.484038         2.287135
 C        -2.629163         1.138547         2.285955
 C        -1.970506        -0.145633         1.732059
 H        -0.135501        -0.886266         0.243863
 H        -0.830338         2.556520        -0.214419
 H        -2.020531         1.338788        -0.694332
 H        -3.617494         2.605825         0.892996
 H        -1.425197         2.340331         4.047871
 H         0.443890         2.249625         1.852173
 H         0.255261         0.741964         3.063581
 H        -3.573082         1.025348         2.691921
 H        -1.485106        -0.904724         2.391883
 H        -2.488113        -0.692838         0.950565
