19
Iteration:  3116
 O         0.172152         0.132905         0.210179
 C        -0.836582         0.719044         1.023343
 C        -1.787616         1.652325         0.210472
 C        -2.619207         2.247122         1.286280
 O        -1.853092         3.184712         2.093915
 C        -1.409957         2.105639         2.975865
 C        -0.278826         1.520332         2.343043
 C        -2.649381         1.180262         2.390540
 C        -1.959616        -0.124961         1.728285
 H         0.496543        -0.612319         0.743236
 H        -1.096234         2.426697        -0.332425
 H        -2.215426         1.056081        -0.556929
 H        -3.681178         2.640625         1.057084
 H        -1.489940         2.378608         4.031890
 H         0.525295         2.184302         2.126703
 H         0.288240         0.856113         3.036382
 H        -3.494543         1.160620         3.055944
 H        -1.584788        -0.894363         2.438809
 H        -2.780849        -0.585819         1.154650
