19
Iteration:   617charge 0 multiplicity 1
 O         0.159341        -0.046979         0.357213
 C        -0.826456         0.720347         0.982190
 C        -1.378198         2.009468         0.322832
 C        -2.578896         2.244677         1.159667
 O        -2.090844         3.151861         2.253662
 C        -1.496020         2.082204         2.905050
 C        -0.329150         1.384101         2.248508
 C        -2.618463         1.150471         2.331494
 C        -1.965927        -0.074253         1.686625
 H        -0.145697        -0.960187         0.183549
 H        -0.891739         2.960188         0.140745
 H        -1.756825         1.709286        -0.654659
 H        -3.582827         2.646127         0.780179
 H        -1.395990         2.132806         4.013188
 H         0.362345         2.181247         1.997102
 H         0.023037         0.617004         2.998778
 H        -3.536777         1.271895         2.948380
 H        -1.492445        -0.870018         2.379024
 H        -2.786389        -0.289762         0.929979
