19
Iteration:   761
 O         0.198463        -0.103347         0.392552
 C        -0.757094         0.699155         1.031538
 C        -1.535910         1.904743         0.266715
 C        -2.666405         2.323442         1.224599
 O        -1.987858         3.187269         2.272573
 C        -1.581401         1.980216         2.917881
 C        -0.243893         1.479847         2.263523
 C        -2.712578         1.168337         2.227627
 C        -1.932379        -0.034989         1.746915
 H        -0.186020        -0.213523        -0.487044
 H        -0.919582         2.696173        -0.291056
 H        -1.811329         1.457846        -0.690591
 H        -3.508686         2.820010         0.730327
 H        -1.699600         2.138414         3.974000
 H         0.275385         2.294680         1.785444
 H         0.513901         0.841555         2.739400
 H        -3.646693         1.144920         2.835075
 H        -1.316079        -0.511756         2.547520
 H        -2.341604        -0.981544         1.206426
