19
Iteration:  3280charge 0 multiplicity 1
 O         0.086616         0.096143         0.169853
 C        -0.820081         0.684416         1.032372
 C        -1.644460         1.735516         0.264497
 C        -2.594371         2.190239         1.296732
 O        -1.860229         3.184424         2.117334
 C        -1.533686         2.104799         2.960142
 C        -0.236588         1.577849         2.305224
 C        -2.686273         1.098999         2.359242
 C        -1.967635        -0.055389         1.827939
 H         0.387750        -0.761948         0.472374
 H        -0.844663         2.544009        -0.136392
 H        -2.056107         1.132494        -0.539131
 H        -3.575594         2.595120         0.932525
 H        -1.261630         2.329521         3.974142
 H         0.520511         2.290329         2.100052
 H         0.399833         0.913931         2.874704
 H        -3.596857         1.070300         2.874746
 H        -1.650963        -0.911686         2.430899
 H        -2.576345        -0.440326         0.987362
