19
Iteration:  1340
 O         0.290329         0.137387         0.396687
 C        -0.879468         0.723480         0.986146
 C        -1.635076         1.702120         0.158781
 C        -2.602406         2.300142         1.262849
 O        -1.888790         3.195202         2.116282
 C        -1.505630         2.093611         2.965562
 C        -0.290116         1.449299         2.378803
 C        -2.646838         1.124460         2.300701
 C        -2.024236        -0.100034         1.704735
 H         0.012834        -0.685340        -0.077581
 H        -0.924395         2.543765        -0.148495
 H        -2.216389         1.248188        -0.653792
 H        -3.658709         2.610158         0.894518
 H        -1.655515         2.178562         4.082521
 H         0.468552         2.258330         2.244266
 H         0.158456         0.653535         2.947531
 H        -3.510664         0.978728         2.886821
 H        -1.780285        -0.680221         2.631462
 H        -2.728533        -0.653160         1.018753
