19
Iteration:  1333
 O         0.237126         0.139948         0.397617
 C        -0.832718         0.731599         1.053634
 C        -1.654135         1.720791         0.185648
 C        -2.613109         2.278621         1.227097
 O        -1.849330         3.165105         2.129813
 C        -1.545623         2.025402         2.958072
 C        -0.245365         1.511782         2.370702
 C        -2.637975         1.153801         2.292952
 C        -2.031545        -0.123445         1.725430
 H         0.064329        -0.660146        -0.124061
 H        -1.150375         2.490022        -0.374285
 H        -2.054632         1.005406        -0.694064
 H        -3.529986         2.742467         0.962728
 H        -1.696142         2.355339         3.996519
 H         0.302630         2.427591         2.261618
 H         0.207369         0.625125         2.827660
 H        -3.653975         1.148305         2.818069
 H        -1.755474        -0.911705         2.440665
 H        -2.627899        -0.397970         0.814805
