19
Iteration:  3219charge 0 multiplicity 1
 O         0.154730        -0.017778         0.234960
 C        -0.814086         0.682751         0.995816
 C        -1.619414         1.736848         0.232954
 C        -2.634267         2.278005         1.287038
 O        -1.997960         3.254381         2.161956
 C        -1.467115         2.053297         2.968368
 C        -0.174267         1.480631         2.176262
 C        -2.641118         1.166978         2.447720
 C        -2.010616        -0.075993         1.774905
 H         0.928285        -0.040734         0.792580
 H        -0.963730         2.447410        -0.099084
 H        -2.102101         1.361215        -0.710575
 H        -3.603337         2.568822         0.864205
 H        -1.617126         2.288107         4.047324
 H         0.132508         2.502185         1.901195
 H         0.471172         0.894711         2.787372
 H        -3.519408         1.063819         3.161980
 H        -1.618560        -0.904468         2.381098
 H        -2.712980        -0.555692         1.046747
