19
Iteration:  2497
 O         0.114288         0.015052         0.270212
 C        -0.815420         0.705200         1.070531
 C        -1.589877         1.810233         0.238526
 C        -2.693309         2.238229         1.260325
 O        -1.926649         3.155221         2.113134
 C        -1.493634         2.052731         2.878689
 C        -0.183115         1.425102         2.291288
 C        -2.639216         1.208693         2.340028
 C        -2.005535        -0.089554         1.823777
 H         0.992553         0.469880         0.298149
 H        -0.958708         2.692032        -0.030093
 H        -2.059893         1.298918        -0.638895
 H        -3.664670         2.602802         0.918638
 H        -1.631415         2.295878         3.981188
 H         0.367629         2.245404         1.724766
 H         0.292433         0.887423         3.030224
 H        -3.469772         1.180004         3.110328
 H        -1.590535        -0.700864         2.642214
 H        -2.667188        -0.628233         1.112210
