19
Iteration:  2094charge 0 multiplicity 1
 O         0.202105         0.086966         0.148943
 C        -0.774858         0.646660         1.102259
 C        -1.760949         1.644470         0.253878
 C        -2.658377         2.222053         1.322705
 O        -2.039436         3.299387         2.035979
 C        -1.447785         2.203070         2.865773
 C        -0.226070         1.561746         2.333461
 C        -2.633681         1.147947         2.385649
 C        -1.864904        -0.152682         1.866272
 H         0.433972        -0.829880         0.386120
 H        -1.240043         2.347390        -0.508677
 H        -2.367995         0.799001        -0.191111
 H        -3.650314         2.576090         0.914672
 H        -1.328906         2.371648         3.906196
 H         0.472681         2.171500         1.808443
 H         0.183736         0.848441         3.049131
 H        -3.344022         1.152640         3.117240
 H        -1.377769        -0.637150         2.721647
 H        -2.411866        -0.964416         1.391777
