19
Iteration:  3362
 O         0.067257         0.114665         0.253975
 C        -0.842534         0.721428         1.052030
 C        -1.615086         1.715498         0.221289
 C        -2.581362         2.239042         1.234219
 O        -1.908457         3.203714         2.151821
 C        -1.489124         2.027758         2.972481
 C        -0.188985         1.499163         2.237908
 C        -2.656841         1.137529         2.365029
 C        -2.014700        -0.093261         1.780244
 H         0.795517        -0.247902         0.768130
 H        -1.058527         2.454552        -0.170571
 H        -2.044342         1.217978        -0.677195
 H        -3.479934         2.754566         0.935161
 H        -1.297073         2.280543         4.055298
 H         0.475899         2.327504         1.855085
 H         0.168117         0.659699         2.905228
 H        -3.562055         1.200145         3.016327
 H        -1.722454        -0.797622         2.596859
 H        -2.581993        -0.624140         0.984250
