19
Iteration:  3346charge 0 multiplicity 1
 O         0.058725        -0.070909         0.273346
 C        -0.870929         0.748040         1.105786
 C        -1.603966         1.758966         0.160477
 C        -2.635745         2.300760         1.284507
 O        -1.950368         3.183028         2.201409
 C        -1.441978         2.044912         2.928226
 C        -0.260671         1.563655         2.275597
 C        -2.566234         1.137985         2.381935
 C        -1.931393        -0.073234         1.663869
 H         0.726285        -0.410910         0.920536
 H        -0.838538         2.663883        -0.143397
 H        -2.255081         1.278764        -0.563035
 H        -3.624777         2.689720         0.869427
 H        -1.488272         2.345379         3.969231
 H         0.286644         2.410598         1.905924
 H         0.480240         1.012742         2.822404
 H        -3.474549         0.894833         2.921745
 H        -1.518158        -0.859951         2.283766
 H        -2.726002        -0.313209         0.935726
