19
Iteration:  3680
 O         0.059357         0.014344         0.229274
 C        -0.779392         0.719960         1.087502
 C        -1.641618         1.755823         0.246385
 C        -2.635428         2.346212         1.314633
 O        -2.010478         3.207659         2.182469
 C        -1.453542         2.109419         2.886743
 C        -0.224697         1.443103         2.214628
 C        -2.645307         1.136469         2.332407
 C        -1.899440        -0.084930         1.701199
 H         0.696767        -0.271062         0.901322
 H        -0.858487         2.441993        -0.131729
 H        -2.162255         1.005986        -0.426054
 H        -3.601130         2.781586         1.049633
 H        -1.237384         2.337714         4.008290
 H         0.650914         2.123731         2.101913
 H         0.123533         0.817136         2.993294
 H        -3.372628         0.800857         3.120309
 H        -1.650166        -0.738895         2.498184
 H        -2.452537        -0.675677         1.008779
