19
Iteration:  4438
 O         0.174944         0.136628         0.178745
 C        -0.829297         0.765543         1.033471
 C        -1.660149         1.744858         0.202228
 C        -2.653902         2.187098         1.256170
 O        -1.921231         3.216729         2.112345
 C        -1.426987         2.048066         3.048223
 C        -0.221995         1.417509         2.322380
 C        -2.617163         1.141578         2.420598
 C        -2.089473        -0.090609         1.725726
 H         0.897235        -0.064095         0.810706
 H        -1.240282         2.704797        -0.083029
 H        -2.132653         1.236025        -0.674481
 H        -3.628194         2.656010         0.904461
 H        -1.286996         2.306084         4.077321
 H         0.651253         2.014674         1.995672
 H         0.302609         0.589186         3.072779
 H        -3.586548         1.036333         2.975629
 H        -1.774655        -0.930828         2.342554
 H        -2.700468        -0.483485         0.932798
