19
Iteration:  2232
 O         0.202247         0.087218         0.384638
 C        -0.819220         0.795747         1.063591
 C        -1.795998         1.650300         0.095714
 C        -2.717683         2.186989         1.210536
 O        -1.972800         3.179728         2.110053
 C        -1.435457         2.129673         2.869347
 C        -0.208327         1.493925         2.226553
 C        -2.629175         1.207492         2.528028
 C        -1.811336        -0.060733         1.800811
 H         0.030702        -0.794059         0.023099
 H        -1.280786         2.376711        -0.538349
 H        -2.344582         0.959343        -0.466802
 H        -3.680377         2.608094         1.091190
 H        -1.111269         2.446069         3.928503
 H         0.551893         2.313421         1.948004
 H         0.092056         0.595009         2.838958
 H        -3.458440         1.156049         3.212119
 H        -1.511298        -0.810878         2.559421
 H        -2.375790        -0.669752         1.079047
