19
Iteration:  1457
 O         0.179215         0.010161         0.318207
 C        -0.825358         0.746986         1.063267
 C        -1.633428         1.706211         0.215523
 C        -2.644820         2.189268         1.236487
 O        -1.912843         3.197563         2.077874
 C        -1.491025         2.107868         2.920873
 C        -0.276977         1.478675         2.459713
 C        -2.599850         1.178389         2.400721
 C        -2.047491        -0.111985         1.620511
 H         0.888768         0.660117         0.146046
 H        -0.932625         2.556804        -0.060613
 H        -2.059835         1.183210        -0.699486
 H        -3.566207         2.599874         0.856878
 H        -1.520271         2.258003         4.003600
 H         0.433922         2.310607         2.145898
 H         0.167752         0.909097         3.317074
 H        -3.521104         1.188437         2.938879
 H        -1.572205        -0.864375         2.229828
 H        -2.779697        -0.394996         0.902462
