19
Iteration:  2179charge 0 multiplicity 1
 O         0.082888        -0.065813         0.278294
 C        -0.806418         0.718265         1.051584
 C        -1.656500         1.596315         0.222278
 C        -2.607264         2.192435         1.211932
 O        -2.171783         3.201871         2.164446
 C        -1.433477         2.182865         2.885631
 C        -0.171609         1.603818         2.185937
 C        -2.529640         1.182674         2.412112
 C        -1.903774        -0.062691         1.896054
 H         0.739454         0.503953        -0.151090
 H        -1.028338         2.452309        -0.273546
 H        -2.110747         1.115365        -0.625477
 H        -3.579440         2.567559         0.972619
 H        -1.196825         2.450046         3.967741
 H         0.663384         2.367017         1.801388
 H         0.413743         0.912595         2.857678
 H        -3.400549         1.081786         2.972210
 H        -1.534433        -0.685203         2.740726
 H        -2.677269        -0.630382         1.392179
