19
Iteration:   801charge 0 multiplicity 1
 O         0.179829         0.049860         0.380936
 C        -0.868666         0.741095         1.094923
 C        -1.583377         1.712829         0.154206
 C        -2.635838         2.198791         1.210876
 O        -1.908706         3.206281         2.159699
 C        -1.510965         2.142749         2.988385
 C        -0.233069         1.371873         2.374294
 C        -2.612433         1.181779         2.395582
 C        -2.017465        -0.053584         1.544820
 H         0.816252         0.707036        -0.019200
 H        -1.077735         2.489941        -0.332275
 H        -2.278398         1.022478        -0.447298
 H        -3.672792         2.537682         0.834201
 H        -1.493366         2.301904         4.100010
 H         0.482342         2.106404         2.055217
 H         0.137516         0.686230         3.116477
 H        -3.541236         0.960037         3.003192
 H        -1.789957        -0.928315         2.163865
 H        -2.800394        -0.246593         0.847013
