19
Iteration:  4540charge 0 multiplicity 1
 O         0.169612         0.034832         0.213909
 C        -0.757809         0.732240         1.053357
 C        -1.713687         1.820113         0.258732
 C        -2.705140         2.294941         1.298110
 O        -1.903497         3.217445         2.151546
 C        -1.511400         1.998787         2.932044
 C        -0.247369         1.483472         2.265596
 C        -2.622061         1.116333         2.429179
 C        -1.924978        -0.068083         1.664331
 H         0.407991        -0.776749         0.678030
 H        -1.114932         2.712371        -0.097842
 H        -2.088169         1.239692        -0.615958
 H        -3.677520         2.781418         1.051304
 H        -1.236443         2.368684         3.896038
 H         0.521042         2.270146         2.318972
 H         0.272058         0.603295         2.914948
 H        -3.473346         0.753764         2.994191
 H        -1.813168        -0.840171         2.409495
 H        -2.689938        -0.394662         0.905167
