19
Iteration:   996
 O         0.123247        -0.229722         0.416246
 C        -0.782030         0.766467         1.019436
 C        -1.606514         1.949188         0.204258
 C        -2.712488         2.269716         1.279080
 O        -2.091380         3.216637         2.177641
 C        -1.496269         2.075296         2.884644
 C        -0.199931         1.494102         2.210130
 C        -2.615427         1.135372         2.373677
 C        -1.874883        -0.051000         1.692274
 H         1.003970         0.202065         0.558913
 H        -0.912122         2.749288        -0.103500
 H        -1.868935         1.607530        -0.859809
 H        -3.734020         2.567558         0.988505
 H        -1.289016         2.167791         3.969001
 H         0.528280         2.266976         2.080808
 H         0.129730         0.675591         2.794863
 H        -3.522826         0.829712         2.968528
 H        -1.330593        -0.802720         2.297310
 H        -2.501067        -0.447928         0.967976
