19
Iteration:  4642
 O         0.117612        -0.040962         0.249458
 C        -0.808937         0.778951         0.971927
 C        -1.612952         1.814346         0.253175
 C        -2.631973         2.281358         1.339632
 O        -2.065998         3.203951         2.275584
 C        -1.395218         2.064091         2.945867
 C        -0.193053         1.510758         2.245659
 C        -2.601702         1.115099         2.302848
 C        -1.963886        -0.052486         1.674091
 H         0.162572        -0.882093         0.753222
 H        -0.899528         2.471437        -0.273673
 H        -2.159228         1.300530        -0.546732
 H        -3.543727         2.654753         0.969795
 H        -1.326895         2.371501         4.030719
 H         0.391936         2.416598         1.860443
 H         0.295247         0.768835         2.887528
 H        -3.473117         0.847302         2.893306
 H        -1.633967        -0.821465         2.404312
 H        -2.574499        -0.592804         0.945923
