19
Iteration:  4941
 O         0.198010         0.008251         0.339620
 C        -0.880898         0.844033         1.046230
 C        -1.704965         1.699733         0.148661
 C        -2.633354         2.310838         1.300751
 O        -1.857362         3.165441         2.193637
 C        -1.465612         1.976197         2.990027
 C        -0.244403         1.487095         2.267127
 C        -2.645040         1.153598         2.410904
 C        -1.987531        -0.012723         1.662900
 H        -0.024542         0.168465        -0.606901
 H        -1.048935         2.498049        -0.184851
 H        -2.110581         1.054564        -0.641028
 H        -3.571511         2.588878         0.824183
 H        -1.476085         2.110446         4.096447
 H         0.372132         2.398526         2.165259
 H         0.350690         0.671991         2.788213
 H        -3.522715         0.896803         3.080055
 H        -1.560613        -0.833168         2.216172
 H        -2.537705        -0.554192         0.943921
