19
Iteration:  4370
 O         0.000269        -0.180873         0.183413
 C        -0.801231         0.747249         1.073096
 C        -1.565854         1.852261         0.277755
 C        -2.645537         2.266617         1.282232
 O        -2.029442         3.219161         2.254736
 C        -1.441236         2.059389         2.973482
 C        -0.242153         1.582106         2.259017
 C        -2.653335         1.084374         2.341394
 C        -1.860234        -0.058773         1.669630
 H         0.881096         0.182965        -0.074203
 H        -0.994650         2.828020         0.056096
 H        -1.852614         1.331263        -0.595903
 H        -3.438725         2.678336         0.691398
 H        -1.551712         2.159087         4.080558
 H         0.443350         2.459754         2.001664
 H         0.523057         0.972197         2.932885
 H        -3.447981         0.975652         3.031540
 H        -1.486178        -0.769726         2.414089
 H        -2.532340        -0.555036         1.057162
