19
Iteration:  1309charge 0 multiplicity 1
 O         0.189026         0.023849         0.399072
 C        -0.791699         0.756175         1.079267
 C        -1.587941         1.706803         0.270178
 C        -2.635842         2.319871         1.243633
 O        -1.947968         3.163584         2.131447
 C        -1.480501         2.031162         2.938789
 C        -0.196483         1.508630         2.364710
 C        -2.734917         1.105478         2.268855
 C        -1.963503         0.003464         1.655113
 H        -0.244397        -0.406290        -0.357960
 H        -0.973010         2.465660        -0.316442
 H        -2.119595         1.102299        -0.649735
 H        -3.550073         2.757965         0.761270
 H        -1.648701         2.203484         4.048572
 H         0.287014         2.417774         2.064788
 H         0.368186         0.838046         2.955005
 H        -3.564340         0.834609         2.911347
 H        -1.664762        -0.544512         2.568376
 H        -2.476036        -0.562795         0.811875
