19
Iteration:  4576charge 0 multiplicity 1
 O         0.043275         0.184021         0.134973
 C        -0.862167         0.694487         1.107466
 C        -1.582027         1.664718         0.246048
 C        -2.619110         2.336263         1.219149
 O        -1.918797         3.196593         2.225109
 C        -1.485072         2.019073         2.917230
 C        -0.226623         1.436267         2.307165
 C        -2.603081         1.131612         2.305133
 C        -1.964893        -0.112979         1.828207
 H         0.880546        -0.072897         0.534578
 H        -0.972938         2.489695        -0.278839
 H        -2.189339         1.207994        -0.519682
 H        -3.533211         2.769089         0.890990
 H        -1.255375         2.193397         4.044433
 H         0.438956         2.423687         2.151121
 H         0.183831         0.613728         2.940395
 H        -3.557678         1.063526         2.783109
 H        -1.737392        -0.916441         2.652825
 H        -2.563500        -0.608255         0.994545
