19
Iteration:  2159
 O         0.097360        -0.192005         0.302272
 C        -0.753433         0.741451         1.064512
 C        -1.695440         1.726961         0.187144
 C        -2.768555         2.216414         1.310563
 O        -2.123944         3.295997         2.124723
 C        -1.424371         2.159946         2.874514
 C        -0.162480         1.572359         2.178533
 C        -2.584842         1.140240         2.420216
 C        -1.795864        -0.047859         1.840350
 H         1.026132         0.017261         0.560589
 H        -1.270438         2.663461        -0.411269
 H        -2.385510         1.203835        -0.570606
 H        -3.783978         2.437460         0.859188
 H        -1.424261         2.341023         3.957910
 H         0.516580         2.394144         1.743824
 H         0.345391         0.976605         2.877022
 H        -3.268475         0.961982         3.168447
 H        -1.250314        -0.771799         2.446264
 H        -2.295987        -0.721868         1.150204
