19
Iteration:  1924charge 0 multiplicity 1
 O         0.239373        -0.064948         0.421286
 C        -0.777693         0.655435         1.067668
 C        -1.730312         1.738707         0.178482
 C        -2.651656         2.290655         1.275892
 O        -2.053064         3.231969         2.149095
 C        -1.521009         2.083797         2.944743
 C        -0.197184         1.590789         2.097469
 C        -2.581637         1.181009         2.352651
 C        -1.851386        -0.121145         1.810175
 H        -0.251652        -0.507142        -0.294508
 H        -1.129542         2.558371        -0.193315
 H        -2.353338         1.270646        -0.689617
 H        -3.593568         2.709281         0.941792
 H        -1.488671         2.420233         3.997354
 H         0.349699         2.433492         1.695565
 H         0.418379         1.014327         2.766344
 H        -3.501647         1.151684         3.084462
 H        -1.600678        -0.657504         2.712654
 H        -2.519025        -0.816142         1.257345
