19
Iteration:  1567
 O         0.201321         0.028328         0.366632
 C        -0.796545         0.837044         1.015274
 C        -1.671719         1.772932         0.193212
 C        -2.693183         2.266399         1.253313
 O        -1.909781         3.177775         2.066083
 C        -1.548415         2.053651         2.936165
 C        -0.266799         1.443348         2.351753
 C        -2.676707         1.120880         2.377241
 C        -1.857596        -0.057334         1.742453
 H        -0.251780        -0.776192         0.027828
 H        -1.023085         2.592366        -0.380685
 H        -2.215817         1.221448        -0.609133
 H        -3.423740         2.858512         0.699046
 H        -1.511109         2.330759         4.009539
 H         0.447369         2.311435         2.245466
 H         0.106852         0.679748         2.988860
 H        -3.456669         0.921406         3.092484
 H        -1.358477        -0.575851         2.591153
 H        -2.269710        -0.817351         1.102716
