19
Iteration:  2543charge 0 multiplicity 1
 O         0.221481        -0.221460         0.306021
 C        -0.752645         0.730324         1.040395
 C        -1.604465         1.792250         0.152933
 C        -2.621209         2.252625         1.256913
 O        -2.012706         3.257971         2.234289
 C        -1.513370         2.005684         2.985942
 C        -0.182065         1.632078         2.331060
 C        -2.591502         1.177208         2.342604
 C        -2.038646         0.004550         1.687402
 H        -0.160226        -0.375453        -0.568070
 H        -1.200783         2.634128        -0.309254
 H        -2.203741         1.149129        -0.555871
 H        -3.666928         2.643321         0.988248
 H        -1.426619         2.077131         4.063060
 H         0.329179         2.605328         2.158647
 H         0.277129         0.909197         2.941100
 H        -3.649169         1.057096         2.845788
 H        -1.602625        -0.708528         2.380955
 H        -2.805981        -0.433422         0.974663
