19
Iteration:  2060
 O         0.039727         0.019872         0.289024
 C        -0.818811         0.831480         1.096650
 C        -1.663032         1.710757         0.174298
 C        -2.666486         2.093961         1.290219
 O        -2.008636         3.105499         2.031445
 C        -1.397856         2.103618         2.923559
 C        -0.212974         1.646101         2.227707
 C        -2.586941         1.128751         2.468123
 C        -1.891622        -0.020505         1.798195
 H         0.394749        -0.705792         0.852225
 H        -1.217092         2.675599        -0.404495
 H        -1.954072         1.023527        -0.652194
 H        -3.599296         2.454642         0.826404
 H        -1.418278         2.476456         3.965584
 H         0.539650         2.401480         1.832787
 H         0.403736         1.036350         2.933656
 H        -3.375609         1.182261         3.118133
 H        -1.360531        -0.546044         2.610327
 H        -2.491213        -0.652822         1.163674
