19
Iteration:   910
 O         0.218073         0.035129         0.443864
 C        -0.849797         0.777258         1.024665
 C        -1.604546         1.863229         0.147300
 C        -2.660377         2.245272         1.225128
 O        -1.963894         3.184210         2.153142
 C        -1.490453         2.054725         2.889201
 C        -0.284170         1.399267         2.287106
 C        -2.623899         1.130298         2.363001
 C        -1.935433        -0.047846         1.731081
 H        -0.185131        -0.519759        -0.258756
 H        -1.100222         2.819925        -0.030985
 H        -2.004524         1.385420        -0.759983
 H        -3.606637         2.676471         0.777114
 H        -1.387931         2.202092         4.001060
 H         0.553472         2.133515         2.194373
 H         0.209923         0.634745         3.013209
 H        -3.508522         0.796093         2.989316
 H        -1.423974        -0.792728         2.410839
 H        -2.651815        -0.624233         1.229421
