19
Iteration:  1188charge 0 multiplicity 1
 O         0.337216         0.104052         0.332414
 C        -0.900432         0.685180         1.136178
 C        -1.589326         1.744514         0.326025
 C        -2.667564         2.262367         1.241178
 O        -1.971020         3.208851         2.109397
 C        -1.536593         2.106631         2.900941
 C        -0.172892         1.444089         2.279035
 C        -2.658205         1.199598         2.333706
 C        -2.084918        -0.162555         1.723297
 H        -0.003806        -0.279094        -0.498999
 H        -0.982025         2.515201        -0.135261
 H        -1.953504         1.246275        -0.585503
 H        -3.601754         2.754808         0.877869
 H        -1.502457         2.295337         3.958410
 H         0.669146         2.038451         1.898723
 H         0.217839         0.690253         2.953451
 H        -3.418844         1.291418         3.011398
 H        -1.821155        -0.967850         2.394476
 H        -2.565348        -0.661826         0.902873
