19
Iteration:  2197
 O         0.129876        -0.015040         0.306052
 C        -0.831097         0.675036         1.108362
 C        -1.649820         1.672752         0.246477
 C        -2.704801         2.185978         1.288501
 O        -1.958899         3.254598         2.046949
 C        -1.494344         2.144130         2.882404
 C        -0.234375         1.607611         2.194045
 C        -2.617958         1.141418         2.468969
 C        -1.847559        -0.149265         1.852303
 H         0.055355         0.486589        -0.515467
 H        -1.056061         2.385252        -0.241994
 H        -2.132396         1.044458        -0.535545
 H        -3.630637         2.532986         0.774385
 H        -1.334992         2.473236         3.924500
 H         0.323415         2.418539         1.816648
 H         0.530854         1.158148         2.886208
 H        -3.531316         1.103542         3.186277
 H        -1.459283        -0.793709         2.662311
 H        -2.368490        -0.696056         1.029889
