19
Iteration:  3686
 O         0.042206        -0.019774         0.226489
 C        -0.804206         0.726339         1.117037
 C        -1.603002         1.734336         0.290334
 C        -2.621150         2.312249         1.275893
 O        -2.077764         3.240761         2.237053
 C        -1.399655         2.082006         2.887810
 C        -0.198506         1.506152         2.197106
 C        -2.587298         1.118093         2.280619
 C        -1.947832        -0.079768         1.730270
 H         0.819451        -0.372214         0.696570
 H        -0.963380         2.519603        -0.163088
 H        -2.221290         1.264041        -0.473178
 H        -3.583764         2.728692         0.932617
 H        -1.353990         2.315841         3.906870
 H         0.721065         2.084189         2.026925
 H         0.102113         0.778021         3.061653
 H        -3.453539         1.148299         2.969453
 H        -1.547658        -0.840162         2.499392
 H        -2.445501        -0.669278         0.897249
