19
Iteration:  2250charge 0 multiplicity 1
 O         0.221754         0.078030         0.294110
 C        -0.889009         0.683236         1.007726
 C        -1.712776         1.616681         0.214519
 C        -2.648529         2.232894         1.328421
 O        -2.042707         3.278580         2.110345
 C        -1.441334         2.156666         2.919027
 C        -0.220485         1.569800         2.190208
 C        -2.505376         1.129021         2.408414
 C        -1.933148        -0.095510         1.813036
 H         0.240233        -0.794006         0.717218
 H        -1.164326         2.329994        -0.368885
 H        -2.336723         0.990777        -0.601758
 H        -3.581436         2.583197         0.774607
 H        -1.362387         2.401140         3.959335
 H         0.448953         2.242536         1.814587
 H         0.302085         0.879746         2.874529
 H        -3.440001         0.942159         3.101250
 H        -1.492112        -0.820117         2.568887
 H        -2.695035        -0.680698         1.233819
