19
Iteration:   223charge 0 multiplicity 1
 O         0.079406        -0.113766         0.224269
 C        -0.776641         0.725251         1.055519
 C        -1.419519         1.792894         0.332585
 C        -2.535681         2.355787         1.217933
 O        -2.128902         3.212230         2.316624
 C        -1.569024         2.051802         2.978671
 C        -0.179810         1.442150         2.280363
 C        -2.717729         1.182609         2.223545
 C        -1.995864        -0.073596         1.649192
 H         1.020408        -0.009412         0.293944
 H        -0.698745         2.555329         0.076837
 H        -1.928675         1.564717        -0.641393
 H        -3.352814         2.828934         0.609535
 H        -1.408862         2.138483         4.080740
 H         0.439697         2.330162         2.212637
 H         0.495430         0.864196         2.900534
 H        -3.725503         1.158819         2.699761
 H        -1.598435        -0.751051         2.441330
 H        -2.559057        -0.701677         0.944415
