19
Iteration:  3615
 O         0.131084         0.037388         0.188596
 C        -0.806620         0.686083         1.022550
 C        -1.662084         1.715899         0.302043
 C        -2.648180         2.320452         1.347215
 O        -1.987575         3.286989         2.168425
 C        -1.490482         2.072339         2.904398
 C        -0.227720         1.442255         2.284530
 C        -2.578333         1.210873         2.339275
 C        -1.917026        -0.161619         1.723838
 H         0.715153        -0.546286         0.693654
 H        -1.066947         2.540857        -0.223148
 H        -2.318918         1.268620        -0.552819
 H        -3.595541         2.622735         0.870365
 H        -1.375536         2.283633         4.039565
 H         0.623391         2.117208         2.000013
 H         0.157068         0.735682         3.002654
 H        -3.541693         1.117254         2.904444
 H        -1.826621        -0.820259         2.618749
 H        -2.527845        -0.655553         0.966617
