19
Iteration:  2436charge 0 multiplicity 1
 O         0.239374        -0.096109         0.367788
 C        -0.799821         0.717834         0.997635
 C        -1.598817         1.762418         0.177688
 C        -2.716386         2.281513         1.333503
 O        -1.995323         3.209270         2.152996
 C        -1.499359         2.057872         2.933306
 C        -0.179890         1.555521         2.188363
 C        -2.691770         1.157321         2.364326
 C        -1.947356        -0.042857         1.815574
 H        -0.225888        -0.469981        -0.399429
 H        -1.073117         2.642827        -0.104621
 H        -2.143123         1.483100        -0.736096
 H        -3.649004         2.785239         0.925691
 H        -1.434208         2.239662         3.969951
 H         0.474807         2.358418         1.912833
 H         0.512839         0.925444         2.844565
 H        -3.586390         1.047816         3.041665
 H        -1.426252        -0.760419         2.462493
 H        -2.576296        -0.658521         1.155508
