19
Iteration:  2101
 O         0.214433         0.114928         0.177315
 C        -0.819338         0.652394         1.057409
 C        -1.675258         1.559291         0.281708
 C        -2.703531         2.230327         1.282706
 O        -2.032277         3.235191         2.106696
 C        -1.435636         2.202557         2.835948
 C        -0.230816         1.570440         2.248747
 C        -2.620209         1.211279         2.381411
 C        -1.911089        -0.149953         1.893374
 H         0.487160        -0.766288         0.446697
 H        -1.128951         2.185949        -0.495545
 H        -2.473419         0.985405        -0.190617
 H        -3.711304         2.500479         1.070808
 H        -1.282608         2.501252         3.947522
 H         0.586136         2.344688         1.924721
 H         0.293990         0.986093         3.005629
 H        -3.470477         1.088955         3.118268
 H        -1.377346        -0.648560         2.718538
 H        -2.514443        -0.804166         1.248364
