19
Iteration:  4325charge 0 multiplicity 1
 O         0.178040         0.028172         0.285272
 C        -0.840917         0.753997         0.964007
 C        -1.596123         1.769672         0.152288
 C        -2.615492         2.228351         1.354108
 O        -1.954437         3.193645         2.203300
 C        -1.494469         2.060041         2.996428
 C        -0.247900         1.450919         2.281923
 C        -2.632302         1.163347         2.395108
 C        -2.008398        -0.069639         1.720649
 H         0.025529         0.180842        -0.676792
 H        -1.016388         2.683656        -0.205331
 H        -2.132948         1.336402        -0.660620
 H        -3.598959         2.490375         1.065945
 H        -1.222923         2.251685         4.061847
 H         0.620801         2.195339         2.081409
 H         0.255983         0.591403         2.875534
 H        -3.569692         1.060796         2.943803
 H        -1.691760        -0.746886         2.521955
 H        -2.445453        -0.590702         0.931269
