19
Iteration:  4172charge 0 multiplicity 1
 O         0.188646         0.070171         0.360106
 C        -0.863613         0.762069         1.052757
 C        -1.725284         1.763448         0.197626
 C        -2.641304         2.255516         1.276647
 O        -1.860070         3.184055         2.246747
 C        -1.427433         1.995033         2.904454
 C        -0.146921         1.409909         2.279981
 C        -2.705345         1.114243         2.314306
 C        -2.082926        -0.017023         1.647425
 H         0.708241         0.678731        -0.181654
 H        -1.186230         2.610494        -0.343587
 H        -2.206480         1.131335        -0.564188
 H        -3.430815         2.862789         0.921187
 H        -1.280763         2.157895         4.039925
 H         0.567666         2.197122         2.271708
 H         0.180824         0.496326         2.729347
 H        -3.432157         1.084032         3.152755
 H        -1.916845        -0.807397         2.434330
 H        -2.572002        -0.597089         0.881416
