19
Iteration:  3281charge 0 multiplicity 1
 O         0.083609         0.093561         0.173522
 C        -0.829878         0.687435         1.036704
 C        -1.633833         1.735816         0.262608
 C        -2.580942         2.185490         1.299696
 O        -1.867681         3.196740         2.120072
 C        -1.538670         2.101974         2.957346
 C        -0.238730         1.579562         2.300694
 C        -2.679193         1.094391         2.357894
 C        -1.963198        -0.063297         1.828321
 H         0.375998        -0.760479         0.464101
 H        -0.858890         2.535491        -0.130752
 H        -2.067352         1.183492        -0.566195
 H        -3.585910         2.599383         0.935874
 H        -1.262013         2.349107         3.985911
 H         0.522028         2.298923         2.072832
 H         0.427698         0.878938         2.854631
 H        -3.607712         1.086628         2.876419
 H        -1.660791        -0.915343         2.419424
 H        -2.593342        -0.469470         0.991714
