19
Iteration:  3989
 O         0.124246        -0.067699         0.278270
 C        -0.790585         0.845158         0.964972
 C        -1.607695         1.834034         0.235313
 C        -2.684292         2.298256         1.286909
 O        -2.022729         3.186374         2.297371
 C        -1.511939         1.977908         2.957464
 C        -0.102629         1.407636         2.244721
 C        -2.621449         1.159622         2.361522
 C        -1.968789         0.050698         1.662446
 H        -0.039648        -0.993954         0.512131
 H        -0.876823         2.533428        -0.329489
 H        -2.049829         1.274703        -0.542122
 H        -3.653147         2.538383         0.718397
 H        -1.441892         2.224934         4.025647
 H         0.526412         2.303892         2.050794
 H         0.672759         0.655512         2.765480
 H        -3.593999         1.174446         2.960744
 H        -1.581438        -0.713335         2.263678
 H        -2.566538        -0.489190         0.932975
