19
Iteration:  1695charge 0 multiplicity 1
 O         0.211327         0.081602         0.287129
 C        -0.858248         0.669625         1.072146
 C        -1.614736         1.701199         0.166379
 C        -2.577206         2.197210         1.249979
 O        -1.957765         3.142074         2.136563
 C        -1.498202         2.142488         2.883240
 C        -0.283314         1.557751         2.196075
 C        -2.651042         1.155736         2.443939
 C        -2.035008        -0.095670         1.852682
 H         1.017321        -0.042633         0.806011
 H        -1.027567         2.481038        -0.098924
 H        -2.172981         1.320535        -0.674246
 H        -3.478622         2.625687         0.910339
 H        -1.388848         2.413231         3.911714
 H         0.326406         2.402270         1.765545
 H         0.466668         0.985117         2.848787
 H        -3.447251         1.011932         3.155437
 H        -1.890592        -1.045135         2.374349
 H        -2.676934        -0.390818         0.970714
