19
Iteration:  2875
 O         0.191361         0.118670         0.224437
 C        -0.832864         0.778171         1.016879
 C        -1.683376         1.732241         0.173657
 C        -2.676223         2.204307         1.239890
 O        -1.919850         3.163855         2.125102
 C        -1.452360         2.073955         2.991605
 C        -0.264304         1.367048         2.318938
 C        -2.621499         1.224970         2.397380
 C        -1.933239        -0.011040         1.795813
 H         0.179039        -0.841678         0.400692
 H        -1.105629         2.679984        -0.226277
 H        -2.197860         1.168085        -0.606407
 H        -3.656048         2.701498         0.778428
 H        -1.536326         2.263863         4.079149
 H         0.570286         1.986967         2.201466
 H         0.129297         0.468671         2.778709
 H        -3.498672         1.034177         3.010331
 H        -1.467811        -0.506315         2.693613
 H        -2.615721        -0.620470         1.206282
