19
Iteration:  1504
 O         0.181630        -0.058347         0.272468
 C        -0.791583         0.671304         1.026230
 C        -1.592170         1.799748         0.155365
 C        -2.604858         2.321455         1.179786
 O        -2.072540         3.250438         2.284970
 C        -1.539741         2.093080         2.953466
 C        -0.275163         1.491749         2.253365
 C        -2.602005         1.210240         2.235178
 C        -1.901862        -0.157945         1.811405
 H         0.617066        -0.547946         0.992328
 H        -0.981307         2.692027        -0.245477
 H        -2.115393         1.352754        -0.640084
 H        -3.660592         2.655419         0.812126
 H        -1.509506         2.148430         4.084182
 H         0.481665         2.343842         1.958655
 H         0.292010         0.752715         2.974210
 H        -3.501489         1.082156         2.890502
 H        -1.728300        -0.546494         2.833866
 H        -2.380120        -0.877332         1.161220
