19
Iteration:  2794
 O        -0.004062        -0.180953         0.365454
 C        -0.854184         0.706580         1.070562
 C        -1.595150         1.882051         0.260140
 C        -2.643831         2.286467         1.267307
 O        -2.059545         3.221406         2.249337
 C        -1.446916         2.076958         2.890008
 C        -0.186596         1.456423         2.211458
 C        -2.587099         1.183335         2.273892
 C        -1.849580        -0.035578         1.700189
 H         0.844980         0.276105         0.106826
 H        -0.987955         2.696792         0.077657
 H        -1.923524         1.518887        -0.749650
 H        -3.577129         2.575923         0.998080
 H        -1.317881         2.179378         3.938702
 H         0.424503         2.350165         1.854615
 H         0.389366         0.787847         2.856670
 H        -3.633166         1.014518         2.595207
 H        -1.378453        -0.634088         2.446636
 H        -2.301653        -0.811601         1.086187
