19
Iteration:  2464
 O         0.121580         0.088941         0.320081
 C        -0.808222         0.758253         1.067152
 C        -1.643110         1.655448         0.162388
 C        -2.626610         2.245313         1.325482
 O        -1.944042         3.227650         2.174316
 C        -1.480227         2.139250         2.903543
 C        -0.195414         1.484903         2.304199
 C        -2.627214         1.142043         2.315137
 C        -1.958140        -0.075375         1.686523
 H         0.137816        -0.811410         0.655718
 H        -1.307546         2.374173        -0.618259
 H        -2.377690         1.044398        -0.381422
 H        -3.566254         2.681567         1.012908
 H        -1.478880         2.322962         4.030054
 H         0.688551         2.176203         2.016400
 H         0.129287         0.713404         2.983467
 H        -3.504104         1.087040         3.002700
 H        -1.460026        -0.796662         2.364647
 H        -2.457616        -0.761487         0.972984
