19
Iteration:  4603
 O         0.147703        -0.036273         0.210095
 C        -0.812740         0.717662         1.009387
 C        -1.603331         1.798850         0.242484
 C        -2.685903         2.284592         1.357895
 O        -1.952952         3.176730         2.203728
 C        -1.473678         2.041695         2.982421
 C        -0.220967         1.518256         2.233236
 C        -2.604957         1.134488         2.359922
 C        -2.010978        -0.036197         1.656662
 H         0.836921        -0.359018         0.811281
 H        -1.162017         2.718784        -0.032115
 H        -2.247474         1.429401        -0.593471
 H        -3.699247         2.644423         0.915085
 H        -1.270579         2.246269         4.014582
 H         0.392178         2.346815         2.080959
 H         0.434613         0.836429         2.839520
 H        -3.587616         0.922280         2.887635
 H        -1.656569        -0.643980         2.527630
 H        -2.632680        -0.620327         0.942607
