19
Iteration:  1030charge 0 multiplicity 1
 O         0.079626        -0.071785         0.321768
 C        -0.795710         0.699729         1.117961
 C        -1.484955         1.704466         0.227546
 C        -2.598366         2.273917         1.211788
 O        -2.049934         3.232896         2.246352
 C        -1.503464         2.039846         2.955624
 C        -0.227717         1.617327         2.225689
 C        -2.666667         1.110570         2.310080
 C        -1.951379        -0.073846         1.721728
 H         0.780058         0.490380        -0.074176
 H        -0.747543         2.333018        -0.325890
 H        -2.102771         1.031844        -0.446287
 H        -3.487093         2.834645         0.860363
 H        -1.375632         2.196726         4.063602
 H         0.367344         2.449468         1.888967
 H         0.358014         1.096605         2.920777
 H        -3.707555         1.152803         2.784467
 H        -1.628707        -1.018771         2.145470
 H        -2.624616        -0.332795         0.980267
