19
Iteration:  2874charge 0 multiplicity 1
 O         0.186544         0.123863         0.229853
 C        -0.830999         0.785552         1.015298
 C        -1.685313         1.736703         0.166333
 C        -2.684643         2.198892         1.236538
 O        -1.913150         3.161469         2.127833
 C        -1.450760         2.073510         2.987088
 C        -0.263245         1.363960         2.323818
 C        -2.631431         1.224425         2.393957
 C        -1.925104        -0.011341         1.802553
 H         0.186829        -0.844003         0.415824
 H        -1.090144         2.660499        -0.237519
 H        -2.183854         1.154100        -0.609904
 H        -3.637203         2.694231         0.792628
 H        -1.493581         2.244899         4.055902
 H         0.563392         1.990983         2.179223
 H         0.090217         0.449697         2.768244
 H        -3.490681         1.055791         3.026603
 H        -1.474214        -0.539742         2.687214
 H        -2.609202        -0.600625         1.210666
