19
Iteration:  1308charge 0 multiplicity 1
 O         0.186226         0.016190         0.397854
 C        -0.793047         0.752463         1.073878
 C        -1.585507         1.711958         0.270807
 C        -2.637004         2.315148         1.250185
 O        -1.954563         3.169313         2.136411
 C        -1.483193         2.031502         2.934419
 C        -0.199016         1.510033         2.363854
 C        -2.726031         1.107368         2.262751
 C        -1.965974         0.001218         1.661040
 H        -0.195726        -0.410905        -0.384726
 H        -0.963145         2.483406        -0.318344
 H        -2.083541         1.118469        -0.641209
 H        -3.568028         2.785570         0.766542
 H        -1.653594         2.251426         4.044581
 H         0.315159         2.428496         2.094198
 H         0.355539         0.823130         2.919846
 H        -3.540877         0.841660         2.883045
 H        -1.655911        -0.570434         2.576093
 H        -2.459749        -0.591393         0.840618
