19
Iteration:   750
 O         0.104323        -0.094124         0.342798
 C        -0.746349         0.782411         1.068171
 C        -1.472374         1.828042         0.183950
 C        -2.585282         2.352383         1.201327
 O        -2.070205         3.210677         2.253117
 C        -1.557729         1.958023         2.949499
 C        -0.239349         1.528062         2.273445
 C        -2.661007         1.134584         2.242861
 C        -1.895750        -0.074685         1.728656
 H        -0.481820        -0.636339        -0.223112
 H        -0.812147         2.712477         0.213490
 H        -1.874593         1.434127        -0.725601
 H        -3.531198         2.752423         0.828522
 H        -1.490538         1.983458         4.031512
 H         0.301206         2.455478         2.170333
 H         0.333539         0.901184         2.978844
 H        -3.597542         1.121807         2.847626
 H        -1.464091        -0.579029         2.628809
 H        -2.460692        -0.834596         1.065766
