19
Iteration:  3289charge 0 multiplicity 1
 O         0.061631         0.069118         0.199953
 C        -0.873298         0.731100         1.094270
 C        -1.564124         1.715723         0.223156
 C        -2.538409         2.216164         1.286690
 O        -1.954021         3.273089         2.145743
 C        -1.515310         2.073815         2.962712
 C        -0.223885         1.531372         2.252242
 C        -2.606867         1.116938         2.397204
 C        -1.946065        -0.150603         1.766591
 H         0.293484        -0.800869         0.528670
 H        -0.930749         2.648234        -0.110812
 H        -2.138724         1.523066        -0.694639
 H        -3.475971         2.574955         0.933183
 H        -1.511157         2.399541         3.986187
 H         0.315571         2.377121         1.842570
 H         0.321948         0.800273         2.771900
 H        -3.556363         1.072448         2.877644
 H        -1.615909        -0.915245         2.530060
 H        -2.634393        -0.681732         1.131879
