19
Iteration:  4414
 O         0.201647         0.058604         0.285864
 C        -0.812933         0.710974         1.006172
 C        -1.728950         1.709186         0.276995
 C        -2.708312         2.365164         1.285106
 O        -1.893909         3.214023         2.232341
 C        -1.478111         2.014932         2.892724
 C        -0.282001         1.408614         2.205087
 C        -2.602548         1.147198         2.361373
 C        -1.995599        -0.089180         1.657707
 H         0.990659         0.222548         0.848411
 H        -1.093729         2.524095        -0.232860
 H        -2.412686         1.294879        -0.431241
 H        -3.631908         2.847174         0.960660
 H        -1.233421         2.184617         3.987200
 H         0.546636         2.264363         2.015194
 H         0.287583         0.785715         3.089455
 H        -3.440949         1.027864         3.019781
 H        -1.497433        -0.775712         2.363369
 H        -2.566348        -0.659119         0.985787
