19
Iteration:  4421
 O         0.236401         0.090814         0.256945
 C        -0.822733         0.663543         1.032564
 C        -1.725559         1.754223         0.235076
 C        -2.683542         2.363619         1.368284
 O        -1.893361         3.198140         2.187404
 C        -1.503107         2.046914         2.848582
 C        -0.252478         1.389368         2.227828
 C        -2.618074         1.131014         2.396760
 C        -1.989390        -0.082823         1.681859
 H         1.082040         0.126713         0.752703
 H        -0.980827         2.398881        -0.242243
 H        -2.403767         1.288391        -0.516381
 H        -3.665101         2.668214         1.034844
 H        -1.466867         2.276161         3.944455
 H         0.430376         2.279704         2.175771
 H         0.165695         0.708604         2.904432
 H        -3.439673         1.088757         3.116357
 H        -1.703654        -0.896040         2.394015
 H        -2.791877        -0.469824         0.953568
