19
Iteration:  1572charge 0 multiplicity 1
 O         0.235825         0.040919         0.341739
 C        -0.794911         0.827328         1.051281
 C        -1.660359         1.740297         0.172906
 C        -2.686735         2.258025         1.249587
 O        -1.901719         3.188301         2.107904
 C        -1.539802         2.055068         2.951087
 C        -0.361164         1.443701         2.305782
 C        -2.634817         1.134874         2.331826
 C        -1.862947        -0.027778         1.790332
 H        -0.306201        -0.639506        -0.077259
 H        -1.133974         2.467254        -0.335267
 H        -2.148579         1.082311        -0.554933
 H        -3.468423         2.850237         0.686966
 H        -1.444958         2.293417         4.019809
 H         0.415798         2.192529         2.181392
 H         0.032307         0.579238         2.982216
 H        -3.501193         0.982765         3.030417
 H        -1.368209        -0.537441         2.602756
 H        -2.353646        -0.827053         1.160401
