19
Iteration:  3981charge 0 multiplicity 1
 O         0.145686        -0.091582         0.323770
 C        -0.765621         0.793267         0.986435
 C        -1.611244         1.905664         0.208673
 C        -2.671667         2.284090         1.281097
 O        -2.062906         3.240830         2.299093
 C        -1.457783         1.960657         2.970718
 C        -0.116650         1.470908         2.201374
 C        -2.646296         1.159813         2.368420
 C        -1.934679        -0.041099         1.612598
 H        -0.317243        -0.949089         0.449389
 H        -0.995473         2.641517        -0.327995
 H        -2.175357         1.207109        -0.534094
 H        -3.560195         2.812764         0.899606
 H        -1.180508         2.106733         3.970038
 H         0.557143         2.372577         2.147108
 H         0.185800         0.539086         2.674553
 H        -3.510225         1.113163         3.031246
 H        -1.738065        -0.800137         2.438167
 H        -2.566859        -0.543441         0.861975
