19
Iteration:  1828charge 0 multiplicity 1
 O         0.076511         0.039043         0.411825
 C        -0.812510         0.789411         1.064625
 C        -1.669499         1.614009         0.103450
 C        -2.663862         2.206293         1.253478
 O        -1.887597         3.176282         2.102587
 C        -1.486781         2.086903         2.915599
 C        -0.208384         1.596572         2.295973
 C        -2.576239         1.146852         2.395711
 C        -1.988866        -0.112998         1.755087
 H         0.526679         0.663410        -0.181962
 H        -1.153876         2.473058        -0.413424
 H        -2.166966         0.987033        -0.662811
 H        -3.618455         2.641871         0.995824
 H        -1.487594         2.212423         4.037027
 H         0.416778         2.537965         1.918666
 H         0.351096         0.825872         2.939583
 H        -3.433640         1.106434         3.183676
 H        -1.562645        -0.687830         2.621932
 H        -2.447601        -0.851019         1.050633
