19
Iteration:  2235
 O         0.190868         0.097408         0.379924
 C        -0.800915         0.799383         1.062186
 C        -1.777058         1.616408         0.096925
 C        -2.703469         2.214804         1.211092
 O        -1.991137         3.202972         2.123404
 C        -1.427110         2.136563         2.873298
 C        -0.235794         1.469455         2.211096
 C        -2.620512         1.198625         2.535973
 C        -1.829083        -0.075821         1.794618
 H         0.116962        -0.839615         0.149260
 H        -1.231351         2.415949        -0.519737
 H        -2.322516         0.906911        -0.478930
 H        -3.710319         2.602711         1.128263
 H        -1.107201         2.460881         3.881485
 H         0.524945         2.327206         1.889687
 H         0.117273         0.639025         2.829500
 H        -3.441737         1.144863         3.166433
 H        -1.393045        -0.824320         2.483840
 H        -2.446310        -0.660288         1.120217
