19
Iteration:  4826
 O         0.301473         0.147083         0.339787
 C        -0.876521         0.708384         0.983428
 C        -1.687261         1.760242         0.165530
 C        -2.654589         2.312903         1.349283
 O        -1.899028         3.197220         2.174504
 C        -1.457703         1.947893         2.928322
 C        -0.259164         1.405470         2.293143
 C        -2.655900         1.239772         2.388082
 C        -2.036267        -0.122971         1.726029
 H         0.097093        -0.380049        -0.468680
 H        -0.932231         2.571634        -0.203362
 H        -2.219186         1.365112        -0.736035
 H        -3.607035         2.753680         0.993919
 H        -1.426100         2.336707         3.938679
 H         0.388725         2.265080         2.017725
 H         0.190313         0.538786         2.803964
 H        -3.441475         0.993094         3.055325
 H        -1.775659        -0.889035         2.492943
 H        -2.603514        -0.795244         1.002058
