19
Iteration:  3479charge 0 multiplicity 1
 O         0.044701         0.004115         0.198765
 C        -0.830812         0.797199         1.075940
 C        -1.596645         1.716784         0.183875
 C        -2.573254         2.271189         1.228226
 O        -1.996866         3.191043         2.243250
 C        -1.469122         2.049291         2.929977
 C        -0.200187         1.524409         2.301437
 C        -2.624258         1.172045         2.397477
 C        -1.949149        -0.101562         1.732694
 H         0.716275        -0.394929         0.818008
 H        -0.945729         2.526985        -0.332897
 H        -2.082065         1.244277        -0.730993
 H        -3.486554         2.630416         0.706733
 H        -1.403363         2.374004         3.973431
 H         0.592851         2.224233         2.089527
 H         0.232134         0.681424         2.849080
 H        -3.582786         1.152463         2.946601
 H        -1.642040        -0.836525         2.459512
 H        -2.674459        -0.592173         1.076383
