19
Iteration:   222
 O         0.073591        -0.114620         0.223915
 C        -0.768559         0.721736         1.059557
 C        -1.417666         1.793215         0.333978
 C        -2.539127         2.357752         1.213640
 O        -2.123301         3.216618         2.317676
 C        -1.572651         2.047387         2.985426
 C        -0.180642         1.446155         2.278774
 C        -2.713497         1.180790         2.217597
 C        -1.996234        -0.075301         1.653038
 H         1.025429         0.010712         0.264065
 H        -0.694814         2.534534         0.086957
 H        -1.940123         1.530425        -0.660323
 H        -3.366052         2.805433         0.615897
 H        -1.428131         2.103730         4.093746
 H         0.423876         2.347880         2.188633
 H         0.485022         0.903002         2.912615
 H        -3.739642         1.171118         2.703569
 H        -1.595755        -0.766488         2.431939
 H        -2.553176        -0.656395         0.920066
