19
Iteration:   619
 O         0.153504        -0.041072         0.361797
 C        -0.830857         0.710865         0.994666
 C        -1.384452         1.989294         0.327622
 C        -2.585527         2.252998         1.170048
 O        -2.089357         3.160792         2.263393
 C        -1.506875         2.082919         2.889577
 C        -0.313414         1.384443         2.237874
 C        -2.609955         1.143836         2.328811
 C        -1.951739        -0.072155         1.683806
 H        -0.168190        -0.902045         0.097018
 H        -0.942572         3.005987         0.101113
 H        -1.627966         1.689115        -0.681349
 H        -3.553781         2.618681         0.759539
 H        -1.527825         2.185124         3.975436
 H         0.441715         2.155993         2.022591
 H         0.065358         0.562004         2.995806
 H        -3.561863         1.285565         2.949544
 H        -1.574864        -0.864854         2.359091
 H        -2.806892        -0.276808         0.957448
