19
Iteration:  1777
 O         0.191130        -0.031690         0.399535
 C        -0.848427         0.702897         1.040146
 C        -1.549295         1.748478         0.238835
 C        -2.661766         2.264850         1.199037
 O        -2.143972         3.239082         2.194134
 C        -1.433643         2.101619         2.863271
 C        -0.160222         1.592805         2.137260
 C        -2.611302         1.138344         2.390709
 C        -1.942348        -0.156715         1.866175
 H        -0.326524        -0.511466        -0.276547
 H        -0.779339         2.576218        -0.033340
 H        -1.950044         1.536370        -0.760281
 H        -3.641150         2.617514         0.741563
 H        -1.150575         2.214113         3.941031
 H         0.559803         2.309485         1.764137
 H         0.275769         0.951736         2.861129
 H        -3.572443         1.047261         2.855544
 H        -1.494903        -0.923751         2.621007
 H        -2.619603        -0.559685         1.094651
