19
Iteration:  2647charge 0 multiplicity 1
 O         0.171778        -0.009626         0.351232
 C        -0.843398         0.721808         0.991923
 C        -1.535805         1.865965         0.199750
 C        -2.607918         2.306919         1.219431
 O        -1.997609         3.193143         2.232120
 C        -1.459387         2.037044         2.943895
 C        -0.337569         1.442143         2.195118
 C        -2.666979         1.114352         2.361299
 C        -1.937572        -0.039271         1.748787
 H        -0.099581        -0.930916         0.236783
 H        -0.768454         2.649024        -0.128120
 H        -2.089213         1.524838        -0.643888
 H        -3.415117         2.897461         0.786303
 H        -1.302944         2.196306         4.053451
 H         0.464433         2.159211         1.963432
 H         0.411560         0.711442         2.734960
 H        -3.529630         0.981434         2.968740
 H        -1.536685        -0.568620         2.646390
 H        -2.685215        -0.658849         1.251046
