19
Iteration:  4980
 O         0.226602         0.126916         0.292601
 C        -0.866994         0.728157         1.006772
 C        -1.645961         1.732231         0.210908
 C        -2.658673         2.279326         1.243635
 O        -1.948297         3.213003         2.223720
 C        -1.458197         2.014365         2.945593
 C        -0.213112         1.352842         2.269512
 C        -2.662766         1.164814         2.395787
 C        -2.005068        -0.046649         1.736766
 H        -0.040662        -0.272547        -0.544264
 H        -1.024325         2.476247        -0.253864
 H        -2.251293         1.317483        -0.616120
 H        -3.481270         2.890430         0.951977
 H        -1.294766         2.182068         4.018913
 H         0.676997         2.011812         2.115685
 H         0.151030         0.556424         2.907817
 H        -3.418822         1.206972         3.156566
 H        -1.537029        -0.649596         2.542252
 H        -2.528249        -0.572874         0.881405
