19
Iteration:  1825charge 0 multiplicity 1
 O         0.082824         0.019635         0.430164
 C        -0.810148         0.820957         1.056903
 C        -1.678678         1.609521         0.105498
 C        -2.659354         2.212855         1.258598
 O        -1.891500         3.187479         2.110609
 C        -1.476977         2.100703         2.917579
 C        -0.219282         1.604118         2.296254
 C        -2.580986         1.119865         2.390423
 C        -1.978895        -0.124078         1.749548
 H         0.537455         0.516228        -0.285609
 H        -1.237838         2.405487        -0.421832
 H        -2.193997         0.968971        -0.716327
 H        -3.611001         2.682492         1.071679
 H        -1.510982         2.285941         3.978543
 H         0.399401         2.461272         2.050894
 H         0.332373         0.823173         2.848049
 H        -3.374643         1.131188         3.176870
 H        -1.560034        -0.701638         2.502976
 H        -2.416922        -0.734950         0.974160
