19
Iteration:  1033charge 0 multiplicity 1
 O         0.082945        -0.055345         0.324002
 C        -0.802857         0.715272         1.085731
 C        -1.505610         1.680461         0.218556
 C        -2.590913         2.289983         1.193293
 O        -2.028356         3.231247         2.241963
 C        -1.503190         2.021360         2.963916
 C        -0.249075         1.602415         2.244942
 C        -2.678877         1.121220         2.323611
 C        -1.930654        -0.088289         1.747127
 H         0.692952         0.576008        -0.117483
 H        -0.746287         2.378780        -0.244607
 H        -2.099383         1.039165        -0.433504
 H        -3.510315         2.862385         0.717229
 H        -1.381331         2.212337         4.055192
 H         0.354805         2.474364         1.816371
 H         0.409782         0.980787         3.054248
 H        -3.727264         1.153529         2.743284
 H        -1.496388        -1.030954         2.258434
 H        -2.668023        -0.294693         0.902061
