19
Iteration:  2741
 O         0.175777         0.082704         0.345810
 C        -0.866023         0.686798         1.071857
 C        -1.613809         1.703712         0.242795
 C        -2.650918         2.313195         1.261351
 O        -1.883501         3.288310         2.179739
 C        -1.485064         2.041390         2.898509
 C        -0.219482         1.388381         2.249362
 C        -2.682927         1.196424         2.314889
 C        -1.980018        -0.137371         1.777509
 H         0.231797         0.561018        -0.516730
 H        -1.136137         2.495478        -0.344517
 H        -2.202038         1.037010        -0.470953
 H        -3.576979         2.721304         0.736170
 H        -1.469124         2.151918         3.944527
 H         0.630960         2.027684         2.214118
 H         0.130980         0.602898         2.851965
 H        -3.550462         0.987651         2.933878
 H        -1.666408        -0.843702         2.583549
 H        -2.512041        -0.700476         0.994894
