19
Iteration:  1072charge 0 multiplicity 1
 O         0.236024         0.033441         0.385578
 C        -0.786477         0.807403         1.085684
 C        -1.740660         1.773515         0.232475
 C        -2.721510         2.305833         1.224602
 O        -1.884451         3.186271         2.050525
 C        -1.498810         2.038446         2.877430
 C        -0.227883         1.359260         2.391450
 C        -2.695606         1.161844         2.371961
 C        -1.913637        -0.076353         1.744038
 H         0.329096         0.248141        -0.553252
 H        -1.352896         2.715413        -0.129847
 H        -2.039618         1.300083        -0.718969
 H        -3.566405         2.704498         0.717929
 H        -1.387998         2.345212         3.928077
 H         0.613729         2.020882         2.334648
 H         0.065971         0.618099         3.065166
 H        -3.628064         0.907859         2.956297
 H        -1.604537        -0.860314         2.409609
 H        -2.461130        -0.671571         1.009969
