19
Iteration:  3824charge 0 multiplicity 1
 O         0.049386        -0.125533         0.207802
 C        -0.745467         0.739981         0.941236
 C        -1.573542         1.790827         0.168574
 C        -2.653999         2.311469         1.331716
 O        -2.031795         3.264028         2.242785
 C        -1.560177         2.018941         3.006140
 C        -0.168794         1.493559         2.259291
 C        -2.604313         1.163056         2.354079
 C        -1.919123        -0.033319         1.758128
 H         0.894823        -0.331959         0.666224
 H        -0.985759         2.629103        -0.384903
 H        -2.233833         1.295405        -0.559854
 H        -3.624704         2.552575         0.826223
 H        -1.354498         2.308212         4.053044
 H         0.532450         2.285582         2.098645
 H         0.305746         0.823049         3.062331
 H        -3.524751         1.035183         2.881496
 H        -1.581973        -0.755950         2.424891
 H        -2.437816        -0.588895         1.014223
