19
Iteration:  3610charge 0 multiplicity 1
 O         0.111954        -0.007703         0.169750
 C        -0.780050         0.688958         1.019622
 C        -1.598794         1.749674         0.225339
 C        -2.670148         2.305937         1.354142
 O        -2.014289         3.277174         2.196946
 C        -1.449308         2.085334         2.912770
 C        -0.249655         1.473906         2.277725
 C        -2.570717         1.157948         2.330291
 C        -1.942641        -0.126829         1.754491
 H         0.708163        -0.522555         0.745371
 H        -1.056349         2.587563        -0.111372
 H        -2.321708         1.287259        -0.413060
 H        -3.614107         2.679017         0.950260
 H        -1.459233         2.391886         3.919612
 H         0.591139         2.147216         2.174031
 H         0.169808         0.727917         3.018952
 H        -3.522641         1.133332         2.837614
 H        -1.761504        -0.799717         2.592078
 H        -2.587143        -0.676150         1.042514
