19
Iteration:  3641charge 0 multiplicity 1
 O         0.139090         0.224519         0.268456
 C        -0.855105         0.782034         1.025007
 C        -1.657551         1.659714         0.147169
 C        -2.655968         2.274931         1.303032
 O        -1.816785         3.105842         2.102206
 C        -1.448129         2.017566         2.948365
 C        -0.227191         1.485143         2.309606
 C        -2.640796         1.135595         2.424302
 C        -2.057737        -0.080353         1.789018
 H         0.595601        -0.546421         0.638594
 H        -1.160639         2.409071        -0.521097
 H        -2.174894         1.091171        -0.587275
 H        -3.555309         2.779999         0.885582
 H        -1.328989         2.355297         3.935707
 H         0.427382         2.282557         2.002208
 H         0.354688         0.656181         2.907576
 H        -3.569647         1.038783         2.921700
 H        -1.914726        -0.835173         2.658514
 H        -2.742468        -0.523703         0.992171
