19
Iteration:  2450
 O         0.180049         0.005063         0.372226
 C        -0.801429         0.751309         1.084343
 C        -1.785052         1.766380         0.211570
 C        -2.670076         2.341578         1.175989
 O        -2.007090         3.217663         2.165933
 C        -1.440095         1.999003         2.910245
 C        -0.186884         1.475278         2.274541
 C        -2.559538         1.171620         2.343944
 C        -1.882565        -0.065555         1.744458
 H        -0.168561        -0.886054         0.128312
 H        -1.062863         2.499915        -0.306584
 H        -2.231374         1.054741        -0.498211
 H        -3.591876         2.692175         0.802221
 H        -1.349166         2.245680         4.022100
 H         0.412836         2.310149         1.994909
 H         0.319291         0.769921         2.898695
 H        -3.396048         0.977277         2.909933
 H        -1.661997        -0.726597         2.610550
 H        -2.552496        -0.486888         1.013021
