19
Iteration:   753
 O         0.116139        -0.096788         0.355345
 C        -0.714173         0.760396         1.071301
 C        -1.490832         1.841066         0.191055
 C        -2.608327         2.361729         1.202581
 O        -2.055323         3.208557         2.257771
 C        -1.551317         1.961875         2.947963
 C        -0.258647         1.509299         2.260578
 C        -2.677901         1.131350         2.240874
 C        -1.909541        -0.072875         1.725941
 H        -0.436183        -0.541536        -0.290695
 H        -0.837636         2.739725         0.190996
 H        -1.816786         1.394872        -0.711040
 H        -3.526781         2.759856         0.834133
 H        -1.585586         1.989727         4.043811
 H         0.272170         2.504753         2.093392
 H         0.397013         0.847630         2.909085
 H        -3.560966         1.223172         2.839852
 H        -1.367758        -0.478143         2.578261
 H        -2.408811        -0.862738         1.146089
