19
Iteration:   351charge 0 multiplicity 1
 O         0.041906        -0.128307         0.316791
 C        -0.757320         0.729798         1.066650
 C        -1.425385         1.835855         0.319765
 C        -2.623627         2.310896         1.288065
 O        -2.071746         3.216597         2.274391
 C        -1.547917         1.982196         2.966732
 C        -0.150832         1.521306         2.303284
 C        -2.623117         1.123081         2.272642
 C        -1.991046         0.037750         1.469862
 H         0.887262        -0.173857         0.840858
 H        -0.861340         2.544552        -0.156703
 H        -1.806251         1.240466        -0.490466
 H        -3.618902         2.380848         0.863230
 H        -1.316583         2.185171         4.034735
 H         0.128595         2.456148         1.856534
 H         0.274782         0.935068         3.089735
 H        -3.667462         0.899680         2.717045
 H        -1.982518        -0.879720         2.089543
 H        -2.560148        -0.210815         0.580970
