19
Iteration:  2965charge 0 multiplicity 1
 O         0.154335         0.085284         0.305985
 C        -0.839029         0.704166         1.036307
 C        -1.617738         1.738016         0.264555
 C        -2.647151         2.272535         1.321887
 O        -1.997722         3.237827         2.132881
 C        -1.420036         2.064535         2.903734
 C        -0.172412         1.450505         2.271276
 C        -2.613696         1.158413         2.339814
 C        -1.976704        -0.087472         1.741458
 H        -0.135974        -0.818942         0.185081
 H        -1.006975         2.576410        -0.156244
 H        -2.300948         1.229705        -0.478270
 H        -3.613583         2.673357         0.827396
 H        -1.456155         2.329940         4.016268
 H         0.498327         2.258053         1.953538
 H         0.186338         0.673131         2.914800
 H        -3.509612         0.971400         2.961225
 H        -1.607916        -0.848410         2.474430
 H        -2.539494        -0.532442         0.856789
