19
Iteration:  3164charge 0 multiplicity 1
 O         0.121971        -0.069231         0.182669
 C        -0.767053         0.719604         1.019641
 C        -1.667532         1.827456         0.187468
 C        -2.589663         2.219052         1.252986
 O        -2.011163         3.231542         2.200770
 C        -1.493843         2.110143         2.983785
 C        -0.263646         1.480532         2.233295
 C        -2.578036         1.179392         2.365081
 C        -1.920774        -0.034395         1.814660
 H         0.555039        -0.828068         0.642356
 H        -1.164670         2.660678        -0.171861
 H        -2.122027         1.241914        -0.713525
 H        -3.648936         2.400044         1.042481
 H        -1.630112         2.357033         4.065223
 H         0.525941         2.279914         2.132053
 H         0.275057         0.861188         2.914319
 H        -3.522382         1.048604         2.923171
 H        -1.484464        -0.639816         2.617432
 H        -2.616449        -0.713004         1.246685
