19
Iteration:   620charge 0 multiplicity 1
 O         0.151433        -0.037706         0.363603
 C        -0.831851         0.707253         1.003201
 C        -1.389548         1.978223         0.326672
 C        -2.590382         2.258149         1.178247
 O        -2.088848         3.167618         2.266961
 C        -1.513681         2.079874         2.883145
 C        -0.302434         1.384606         2.235580
 C        -2.606440         1.141590         2.327828
 C        -1.947788        -0.070394         1.680852
 H        -0.186500        -0.878833         0.050800
 H        -0.955309         3.014040         0.093630
 H        -1.572801         1.675296        -0.708021
 H        -3.527868         2.602156         0.748167
 H        -1.586369         2.215230         3.958492
 H         0.491231         2.137683         2.036824
 H         0.083977         0.555340         2.979102
 H        -3.562053         1.277255         2.937414
 H        -1.623459        -0.859036         2.339718
 H        -2.801217        -0.288458         0.977641
