19
Iteration:  2489charge 0 multiplicity 1
 O         0.150464         0.034414         0.209786
 C        -0.807340         0.648703         1.114913
 C        -1.627396         1.762294         0.214849
 C        -2.668861         2.249994         1.220559
 O        -1.919148         3.168216         2.094424
 C        -1.552070         2.072311         2.942724
 C        -0.252927         1.443965         2.301923
 C        -2.570317         1.204657         2.403345
 C        -1.996899        -0.044488         1.799770
 H         1.081425         0.072263         0.533407
 H        -1.145820         2.606279        -0.122710
 H        -2.199410         1.417643        -0.662267
 H        -3.662361         2.784541         0.932483
 H        -1.434256         2.300126         3.951575
 H         0.327456         2.420107         2.055936
 H         0.386298         0.698630         2.925522
 H        -3.499467         1.112862         3.118450
 H        -1.638060        -0.826723         2.466728
 H        -2.634914        -0.598854         1.074686
