19
Iteration:  4686charge 0 multiplicity 1
 O         0.049443         0.195509         0.191877
 C        -0.855182         0.721442         1.130913
 C        -1.650205         1.726259         0.187475
 C        -2.568465         2.267899         1.272811
 O        -1.950825         3.145174         2.162005
 C        -1.467598         2.032525         2.946933
 C        -0.209646         1.434299         2.323182
 C        -2.632985         1.189091         2.338274
 C        -1.897977        -0.103951         1.747111
 H         0.496043        -0.619638         0.543924
 H        -1.152632         2.637717        -0.176710
 H        -2.209675         1.275650        -0.644945
 H        -3.478332         2.637395         0.929089
 H        -1.294868         2.211273         4.056825
 H         0.660110         2.075003         1.931891
 H        -0.002142         0.588034         3.023801
 H        -3.611738         1.289594         2.819032
 H        -1.527818        -0.777124         2.540158
 H        -2.500464        -0.689812         1.074572
