19
Iteration:  4667charge 0 multiplicity 1
 O         0.121837         0.095748         0.120647
 C        -0.760318         0.730686         1.042051
 C        -1.579058         1.767569         0.292040
 C        -2.670957         2.269718         1.249970
 O        -1.914226         3.222417         2.197005
 C        -1.516056         2.022497         2.962249
 C        -0.187050         1.485074         2.283369
 C        -2.648426         1.134142         2.379672
 C        -2.042332        -0.106547         1.810916
 H         0.291715        -0.860675         0.254299
 H        -0.943824         2.478638        -0.118630
 H        -2.053691         1.328364        -0.605932
 H        -3.537901         2.789445         0.762910
 H        -1.589704         2.284284         4.037524
 H         0.179370         2.426925         1.945535
 H         0.395659         0.877716         2.915628
 H        -3.579479         0.830914         2.966422
 H        -1.555089        -0.808269         2.547587
 H        -2.503237        -0.785696         1.090761
