19
Iteration:  2978
 O         0.188817         0.153063         0.239078
 C        -0.774756         0.774401         1.150747
 C        -1.650087         1.746318         0.209143
 C        -2.620910         2.246652         1.184240
 O        -1.953769         3.157469         2.125352
 C        -1.450507         2.033188         2.948655
 C        -0.178524         1.452069         2.305767
 C        -2.634072         1.171022         2.431922
 C        -2.102624        -0.108742         1.773583
 H        -0.132370        -0.696285        -0.167773
 H        -1.183720         2.409935        -0.377971
 H        -2.017634         1.016138        -0.567028
 H        -3.547879         2.627174         0.834132
 H        -1.241615         2.332206         4.008607
 H         0.600653         2.267334         1.973593
 H         0.478858         0.814203         2.939958
 H        -3.460681         1.302408         3.125334
 H        -1.924209        -0.925889         2.454840
 H        -2.816298        -0.604663         1.023042
