19
Iteration:  4645
 O         0.131331        -0.040354         0.224395
 C        -0.807061         0.753842         0.991370
 C        -1.629107         1.819309         0.251198
 C        -2.619347         2.271961         1.336360
 O        -2.052602         3.203047         2.273292
 C        -1.412498         2.056790         2.945464
 C        -0.204311         1.523731         2.247572
 C        -2.636945         1.137414         2.300453
 C        -1.925256        -0.058656         1.679257
 H         0.153019        -0.882273         0.699401
 H        -0.920347         2.443896        -0.173569
 H        -2.088914         1.279801        -0.590764
 H        -3.602266         2.688515         1.015681
 H        -1.319230         2.324180         4.014216
 H         0.407942         2.346375         1.896254
 H         0.339789         0.870026         2.889568
 H        -3.517722         0.932055         2.984702
 H        -1.687017        -0.856388         2.438859
 H        -2.637464        -0.514822         0.964560
