19
Iteration:  3380charge 0 multiplicity 1
 O         0.227406         0.110848         0.121532
 C        -0.800171         0.690476         1.050427
 C        -1.716302         1.727135         0.281280
 C        -2.685752         2.337818         1.276910
 O        -1.921858         3.225012         2.109462
 C        -1.485956         2.058825         2.901762
 C        -0.212879         1.294181         2.351970
 C        -2.660286         1.252075         2.367947
 C        -2.013529        -0.054127         1.838719
 H         0.849464        -0.416928         0.644277
 H        -0.991640         2.459914        -0.337645
 H        -2.157448         1.145961        -0.554022
 H        -3.672086         2.591411         0.740147
 H        -1.481324         2.146192         4.008747
 H         0.410364         2.146795         2.135934
 H         0.334036         0.712359         3.092475
 H        -3.557900         0.977177         2.980676
 H        -1.574395        -0.676568         2.590828
 H        -2.576016        -0.844231         1.289345
