19
Iteration:  1042charge 0 multiplicity 1
 O         0.118347        -0.013993         0.327171
 C        -0.815567         0.740038         1.057424
 C        -1.609359         1.669322         0.200788
 C        -2.553470         2.335681         1.178535
 O        -1.967058         3.202327         2.205665
 C        -1.558939         2.019206         2.963923
 C        -0.263400         1.511197         2.317614
 C        -2.656392         1.177672         2.348351
 C        -1.913086        -0.112439         1.755943
 H         0.490359         0.653049        -0.283494
 H        -0.988996         2.535294        -0.173979
 H        -2.059257         1.198567        -0.719864
 H        -3.394240         2.689330         0.519004
 H        -1.491768         2.246487         4.065063
 H         0.265285         2.390078         1.947660
 H         0.379551         0.879103         2.913715
 H        -3.664270         0.988192         2.864157
 H        -1.503739        -0.726649         2.576139
 H        -2.440023        -0.678262         1.027663
