19
Iteration:  2487
 O         0.156245         0.034896         0.196118
 C        -0.805098         0.650870         1.114750
 C        -1.650442         1.743037         0.213966
 C        -2.657126         2.258404         1.216002
 O        -1.919308         3.181907         2.091677
 C        -1.546829         2.077187         2.958051
 C        -0.267628         1.450540         2.309644
 C        -2.576776         1.187301         2.417341
 C        -1.987645        -0.040028         1.788051
 H         1.058516        -0.011253         0.635000
 H        -1.126465         2.606780        -0.161483
 H        -2.189554         1.381231        -0.689813
 H        -3.607213         2.774934         0.910943
 H        -1.359585         2.319012         4.016112
 H         0.387622         2.418697         2.152648
 H         0.357160         0.751820         2.839901
 H        -3.531668         1.075208         3.081531
 H        -1.661567        -0.854397         2.447460
 H        -2.648080        -0.579488         1.067068
