19
Iteration:  2322
 O         0.272852        -0.071167         0.324891
 C        -0.763933         0.684066         1.044143
 C        -1.680633         1.672237         0.223497
 C        -2.749474         2.291189         1.286749
 O        -2.022062         3.276489         2.113521
 C        -1.490107         2.128502         2.910938
 C        -0.217485         1.531378         2.236461
 C        -2.617917         1.135555         2.457063
 C        -1.927389        -0.022159         1.760696
 H        -0.103965        -0.225367        -0.549244
 H        -1.096489         2.477777        -0.310674
 H        -2.263180         1.205031        -0.523210
 H        -3.706702         2.583567         0.849962
 H        -1.463190         2.386954         4.007445
 H         0.561436         2.388552         1.890778
 H         0.303480         0.736274         2.841379
 H        -3.304206         0.848947         3.217982
 H        -1.458574        -0.727466         2.478261
 H        -2.540875        -0.723113         1.176748
