19
Iteration:   211charge 0 multiplicity 1
 O         0.020205        -0.135680         0.232773
 C        -0.716632         0.662112         1.134069
 C        -1.431394         1.858917         0.256238
 C        -2.557105         2.339565         1.211186
 O        -2.029687         3.252184         2.320520
 C        -1.618449         1.937318         2.969423
 C        -0.224522         1.550032         2.328029
 C        -2.638542         1.161003         2.208063
 C        -1.970691        -0.055228         1.666142
 H         0.849187         0.415865         0.114757
 H        -0.740234         2.588169        -0.083703
 H        -1.794904         1.184407        -0.603892
 H        -3.513432         2.705290         0.775026
 H        -1.743731         1.975751         4.081207
 H         0.232778         2.348794         1.770615
 H         0.276656         1.007643         3.084175
 H        -3.639895         1.042896         2.745456
 H        -1.844594        -0.936560         2.351623
 H        -2.473646        -0.363906         0.765086
