19
Iteration:   379
 O         0.170817        -0.089807         0.344486
 C        -0.854067         0.702744         0.905684
 C        -1.540869         1.851581         0.189229
 C        -2.555412         2.375152         1.219733
 O        -1.965129         3.205966         2.331416
 C        -1.599048         1.919653         2.968091
 C        -0.253833         1.472446         2.353538
 C        -2.670489         1.186779         2.223542
 C        -1.975698        -0.068738         1.674203
 H         0.925747         0.552562         0.439577
 H        -0.798829         2.706426        -0.162599
 H        -2.065835         1.512845        -0.755107
 H        -3.484539         2.753173         0.742538
 H        -1.641373         1.939007         4.057105
 H         0.416485         2.353728         2.112282
 H         0.131495         0.610555         2.985119
 H        -3.624553         1.042316         2.714271
 H        -1.544870        -0.502771         2.589922
 H        -2.640538        -0.825982         1.180509
