19
Iteration:    58charge 0 multiplicity 1
 O         0.222715         0.016772         0.417592
 C        -0.788463         0.683410         1.093756
 C        -1.478132         1.831057         0.222989
 C        -2.489817         2.313945         1.245525
 O        -1.985528         3.206207         2.259264
 C        -1.527849         2.017843         3.056440
 C        -0.218844         1.374466         2.408933
 C        -2.732951         1.163085         2.217910
 C        -2.169956        -0.088141         1.466011
 H         0.031897         0.322645        -0.512871
 H        -0.872635         2.600885        -0.052218
 H        -1.935837         1.420373        -0.727624
 H        -3.416511         2.782263         0.872441
 H        -1.413207         2.264940         4.132619
 H         0.378850         2.207351         1.993101
 H         0.561670         0.865958         3.057482
 H        -3.801446         0.974190         2.430714
 H        -2.070340        -1.071991         1.987408
 H        -2.806452        -0.205009         0.591790
