19
Iteration:  4536
 O         0.162079         0.027415         0.245484
 C        -0.731223         0.723097         1.065008
 C        -1.731095         1.843365         0.258256
 C        -2.695383         2.287673         1.333911
 O        -1.913365         3.198194         2.152840
 C        -1.475868         2.009632         2.932136
 C        -0.260954         1.511166         2.241807
 C        -2.608566         1.115836         2.398360
 C        -1.960011        -0.059334         1.628298
 H         0.363356        -0.846978         0.653287
 H        -1.059356         2.602586         0.003295
 H        -2.047082         1.273642        -0.625827
 H        -3.675048         2.726114         0.967939
 H        -1.317857         2.312188         3.974619
 H         0.542660         2.199836         2.166103
 H         0.251678         0.796171         2.942438
 H        -3.430241         0.699012         3.058973
 H        -1.789482        -0.840364         2.373602
 H        -2.685346        -0.420200         0.937395
