19
Iteration:   628charge 0 multiplicity 1
 O         0.150768        -0.027819         0.361388
 C        -0.805656         0.716732         1.068411
 C        -1.444575         1.900032         0.259869
 C        -2.617090         2.287229         1.248550
 O        -2.091829         3.236487         2.250759
 C        -1.555108         2.030728         2.891174
 C        -0.197387         1.402314         2.271402
 C        -2.598852         1.145992         2.304356
 C        -1.985384        -0.045265         1.648042
 H        -0.314347        -0.644557        -0.208004
 H        -0.781872         2.777687         0.290150
 H        -1.544521         1.598239        -0.773750
 H        -3.527382         2.608710         0.656147
 H        -1.617309         2.284244         3.957717
 H         0.699139         1.975108         2.080985
 H         0.177875         0.589934         2.937957
 H        -3.558697         1.001778         2.847052
 H        -1.765179        -0.931614         2.325264
 H        -2.688896        -0.563984         0.921945
