19
Iteration:  4929charge 0 multiplicity 1
 O         0.121524         0.010645         0.329001
 C        -0.747305         0.762796         0.995409
 C        -1.574609         1.760162         0.151823
 C        -2.667117         2.260461         1.292277
 O        -1.992701         3.181562         2.232369
 C        -1.472902         2.010491         2.992723
 C        -0.198175         1.472274         2.263418
 C        -2.624627         1.132781         2.392368
 C        -1.985680        -0.022535         1.705732
 H         0.005141         0.040097        -0.625963
 H        -1.171400         2.545288        -0.425895
 H        -2.180690         1.177102        -0.604291
 H        -3.497502         2.838998         1.056619
 H        -1.226114         2.354107         4.026517
 H         0.611497         2.187451         1.967165
 H         0.261069         0.607403         2.889460
 H        -3.635955         1.044115         2.935910
 H        -1.662611        -0.792243         2.398870
 H        -2.743137        -0.314660         1.008277
