19
Iteration:   420charge 0 multiplicity 1
 O         0.162836         0.060959         0.286865
 C        -0.798138         0.693260         1.193546
 C        -1.556557         1.761419         0.248407
 C        -2.616947         2.265997         1.281825
 O        -1.866558         3.204531         2.114987
 C        -1.533427         2.013367         2.982921
 C        -0.256641         1.422051         2.524361
 C        -2.619706         1.122038         2.253386
 C        -2.107703        -0.022004         1.493654
 H         0.558023         0.579353        -0.432768
 H        -0.864384         2.521995        -0.121629
 H        -2.049841         1.210679        -0.601939
 H        -3.601363         2.691346         0.973825
 H        -1.680399         2.180063         4.059667
 H         0.346650         2.330264         2.457231
 H         0.007929         0.593927         3.223242
 H        -3.476299         1.026147         2.823191
 H        -1.819860        -0.939514         1.979728
 H        -2.712135        -0.236309         0.601482
