19
Iteration:  1119charge 0 multiplicity 1
 O         0.283562        -0.051918         0.383100
 C        -0.800842         0.695503         1.026840
 C        -1.520625         1.770457         0.249028
 C        -2.675250         2.357534         1.256845
 O        -2.044917         3.192184         2.252287
 C        -1.541109         2.028435         2.915150
 C        -0.232284         1.523102         2.212638
 C        -2.684250         1.192279         2.291696
 C        -1.969535        -0.068384         1.724083
 H        -0.288983        -0.708312        -0.078325
 H        -0.744170         2.438901        -0.207726
 H        -2.095923         1.522846        -0.686410
 H        -3.551325         2.767240         0.666341
 H        -1.645440         2.147355         4.029292
 H         0.355953         2.305053         1.759142
 H         0.459583         0.964658         2.700234
 H        -3.530500         1.103127         3.049659
 H        -1.609200        -0.752987         2.507005
 H        -2.504028        -0.735407         1.112354
