19
Iteration:  4856
 O         0.168491         0.069070         0.351753
 C        -0.827126         0.776065         1.036962
 C        -1.703728         1.727072         0.136633
 C        -2.623520         2.333455         1.339159
 O        -1.921491         3.223946         2.266917
 C        -1.491745         1.970844         2.927941
 C        -0.192741         1.456264         2.292284
 C        -2.623641         1.166955         2.330012
 C        -1.947709        -0.049431         1.645468
 H        -0.183371        -0.739870        -0.042553
 H        -1.035582         2.373236        -0.563804
 H        -2.252674         1.092117        -0.564579
 H        -3.672163         2.765421         0.973968
 H        -1.568323         2.187170         4.002911
 H         0.438960         2.294561         2.033800
 H         0.317677         0.673390         2.858833
 H        -3.431989         0.780493         2.953833
 H        -1.616283        -0.856423         2.373890
 H        -2.446021        -0.539717         0.707166
