19
Iteration:  4303
 O         0.239381         0.120683         0.344970
 C        -0.867623         0.769003         1.060888
 C        -1.758827         1.739443         0.249326
 C        -2.659224         2.396985         1.278214
 O        -1.811002         3.159234         2.183199
 C        -1.497689         1.972574         2.918639
 C        -0.265002         1.450752         2.300971
 C        -2.643877         1.105420         2.313171
 C        -1.973812        -0.109205         1.695055
 H        -0.304360        -0.369612        -0.287714
 H        -1.108609         2.455220        -0.367723
 H        -2.461627         1.229741        -0.378912
 H        -3.480700         2.974859         0.934732
 H        -1.490660         2.044239         4.046901
 H         0.352756         2.356079         1.857958
 H         0.546411         0.767298         2.764940
 H        -3.312509         0.909289         3.139944
 H        -1.520246        -0.901469         2.314668
 H        -2.500663        -0.557043         0.860605
