19
Iteration:    50
 O         0.233909         0.096791         0.392063
 C        -0.795584         0.709932         1.122518
 C        -1.489264         1.798500         0.270702
 C        -2.540967         2.315615         1.233020
 O        -1.869787         3.191386         2.234094
 C        -1.569228         1.984297         3.012356
 C        -0.321964         1.357194         2.402608
 C        -2.728663         1.160454         2.246055
 C        -2.108555        -0.051767         1.457094
 H        -0.173146        -0.059012        -0.512864
 H        -0.782191         2.586090        -0.179721
 H        -2.016521         1.164333        -0.443197
 H        -3.388748         2.858416         0.723470
 H        -1.580454         2.106842         4.120630
 H         0.370163         2.178354         2.049200
 H         0.322627         0.693230         3.116412
 H        -3.776178         1.016758         2.672761
 H        -1.912833        -0.906431         2.151672
 H        -2.655512        -0.256412         0.488556
