19
Iteration:  3287
 O         0.065442         0.077321         0.192820
 C        -0.872300         0.724280         1.084220
 C        -1.568865         1.722398         0.234782
 C        -2.541752         2.201025         1.293529
 O        -1.932205         3.262210         2.138664
 C        -1.528839         2.077922         2.956687
 C        -0.230933         1.546803         2.265841
 C        -2.622292         1.104545         2.382159
 C        -1.946681        -0.129527         1.783401
 H         0.322903        -0.823127         0.506336
 H        -0.976724         2.558790        -0.100309
 H        -2.148363         1.479801        -0.711571
 H        -3.465386         2.568506         0.965711
 H        -1.435098         2.418878         4.009680
 H         0.402381         2.400983         1.870425
 H         0.376409         0.776529         2.772924
 H        -3.614487         1.095960         2.890144
 H        -1.646040        -0.947513         2.498348
 H        -2.633857        -0.642687         1.108975
