19
Iteration:  4340
 O         0.101530        -0.048061         0.250962
 C        -0.812651         0.738063         1.077604
 C        -1.565508         1.837947         0.264700
 C        -2.659155         2.280553         1.231583
 O        -2.118991         3.192546         2.245543
 C        -1.390558         2.067430         2.897975
 C        -0.193254         1.418930         2.264724
 C        -2.560986         1.131611         2.394531
 C        -1.946286        -0.052222         1.720884
 H         0.166463         0.410641        -0.599280
 H        -0.853396         2.657884        -0.015735
 H        -1.984381         1.372196        -0.695322
 H        -3.561232         2.729232         0.670972
 H        -1.441046         2.281623         3.973265
 H         0.584729         2.045022         2.050840
 H         0.140879         0.665029         2.983000
 H        -3.351986         1.095068         3.178085
 H        -1.499249        -0.880602         2.318534
 H        -2.810738        -0.477637         1.097796
