19
Iteration:  4131charge 0 multiplicity 1
 O         0.036186        -0.071564         0.219497
 C        -0.756755         0.738101         1.015448
 C        -1.540252         1.806617         0.255958
 C        -2.586962         2.310216         1.287264
 O        -1.962609         3.260326         2.266953
 C        -1.547258         2.076927         2.954337
 C        -0.237955         1.497651         2.327143
 C        -2.632801         1.111019         2.341444
 C        -1.924282        -0.146570         1.664776
 H         0.102150         0.338040        -0.668978
 H        -0.863705         2.727337         0.021618
 H        -2.049754         1.575153        -0.640396
 H        -3.554031         2.664243         0.787718
 H        -1.618193         2.199430         4.077291
 H         0.654683         2.027484         2.120467
 H        -0.009757         0.792943         3.145680
 H        -3.559423         0.967092         2.909383
 H        -1.526717        -0.884597         2.430990
 H        -2.464099        -0.873689         1.005124
