19
Iteration:   876charge 0 multiplicity 1
 O         0.180841        -0.083634         0.329302
 C        -0.787813         0.696684         1.106732
 C        -1.548683         1.754582         0.220384
 C        -2.635473         2.282473         1.209235
 O        -2.074901         3.267237         2.313122
 C        -1.511458         2.041927         2.906263
 C        -0.173647         1.574875         2.264649
 C        -2.587396         1.115895         2.322884
 C        -1.997812        -0.021279         1.597062
 H         0.147986        -1.013564         0.600896
 H        -1.107162         2.677975        -0.212319
 H        -1.989655         1.146001        -0.633135
 H        -3.558214         2.712838         0.748289
 H        -1.388342         2.275789         4.004552
 H         0.224054         2.534660         1.818551
 H         0.452095         1.085995         3.081699
 H        -3.536896         0.782866         2.822512
 H        -1.761660        -0.903156         2.256424
 H        -2.693917        -0.294120         0.837123
