19
Iteration:  2364charge 0 multiplicity 1
 O         0.149217         0.092744         0.277218
 C        -0.877462         0.750076         1.024206
 C        -1.724770         1.666586         0.156683
 C        -2.630377         2.279287         1.276851
 O        -1.898784         3.196065         2.067229
 C        -1.555256         2.082354         2.950582
 C        -0.236963         1.514890         2.247824
 C        -2.593529         1.140425         2.438656
 C        -1.890657        -0.111515         1.819239
 H         0.383826        -0.711628         0.784792
 H        -0.970784         2.448267        -0.259449
 H        -2.203538         1.165595        -0.687706
 H        -3.555763         2.690921         1.006581
 H        -1.525265         2.469195         4.050559
 H         0.559610         2.297285         2.008007
 H         0.360271         0.863754         2.901334
 H        -3.434046         1.021285         3.025213
 H        -1.445591        -0.722386         2.678837
 H        -2.495625        -0.720683         1.128413
