19
Iteration:   926charge 0 multiplicity 1
 O         0.232569         0.084007         0.327748
 C        -0.860290         0.716544         1.094825
 C        -1.615993         1.720102         0.192630
 C        -2.612819         2.302589         1.221371
 O        -1.951358         3.208477         2.138013
 C        -1.552722         2.013242         2.991017
 C        -0.225307         1.433112         2.322847
 C        -2.642627         1.161301         2.317044
 C        -1.949903        -0.111371         1.776435
 H         0.062068         0.190221        -0.632581
 H        -0.935182         2.424103        -0.314157
 H        -2.155673         1.312272        -0.674993
 H        -3.586247         2.685894         0.950691
 H        -1.593272         2.403223         4.001311
 H         0.473409         2.223987         2.060839
 H         0.078475         0.609551         2.924683
 H        -3.604303         1.255138         2.786775
 H        -1.654500        -0.668369         2.649220
 H        -2.488323        -0.660994         0.933761
