19
Iteration:   199charge 0 multiplicity 1
 O         0.042606        -0.129980         0.330620
 C        -0.776778         0.738896         1.149633
 C        -1.487621         1.849283         0.192007
 C        -2.554807         2.321435         1.237619
 O        -1.917001         3.173745         2.267519
 C        -1.592024         1.978785         2.935329
 C        -0.269745         1.573280         2.437119
 C        -2.644144         1.102456         2.220208
 C        -1.973122        -0.058402         1.550514
 H         0.475093         0.431597        -0.343656
 H        -0.987078         2.683992        -0.217905
 H        -2.041880         1.369423        -0.726272
 H        -3.441134         2.844694         0.863445
 H        -1.605037         2.052213         4.049500
 H         0.280900         2.508813         2.332468
 H         0.433345         1.103234         3.056728
 H        -3.587549         0.840142         2.818499
 H        -1.848865        -0.867881         2.319766
 H        -2.534833        -0.463079         0.740300
