19
Iteration:  3385
 O         0.226259         0.117212         0.122789
 C        -0.775328         0.652065         1.026579
 C        -1.727722         1.724652         0.267397
 C        -2.683137         2.352252         1.264306
 O        -1.920793         3.211051         2.112703
 C        -1.528028         2.083634         2.900550
 C        -0.206983         1.303308         2.361725
 C        -2.639892         1.209661         2.370122
 C        -1.994048        -0.039785         1.836014
 H         0.821782        -0.482529         0.605361
 H        -1.124341         2.380497        -0.233260
 H        -2.182029         1.182858        -0.568361
 H        -3.618676         2.778184         0.954808
 H        -1.411382         2.235508         3.985366
 H         0.445620         2.177034         2.069313
 H         0.050043         0.612944         3.241432
 H        -3.471129         1.043524         3.051335
 H        -1.632036        -0.607224         2.757121
 H        -2.528675        -0.712681         1.160569
