19
Iteration:   462
 O         0.112116        -0.103845         0.411829
 C        -0.828304         0.715101         1.033091
 C        -1.463555         1.948104         0.196141
 C        -2.601703         2.404572         1.263043
 O        -2.022177         3.204190         2.322562
 C        -1.553039         1.912965         2.919430
 C        -0.274360         1.392803         2.243593
 C        -2.659470         1.183134         2.150713
 C        -1.929806        -0.087998         1.684661
 H         0.679427         0.381365        -0.191890
 H        -0.821470         2.748857         0.115899
 H        -1.870790         1.616957        -0.761418
 H        -3.512045         2.769382         0.706256
 H        -1.624011         2.000915         4.018798
 H         0.482880         2.219926         2.053131
 H         0.252731         0.755907         3.038569
 H        -3.561996         1.097223         2.697188
 H        -1.718241        -0.662719         2.660471
 H        -2.454450        -0.881261         1.154736
