19
Iteration:   390charge 0 multiplicity 1
 O         0.186173         0.002942         0.344868
 C        -0.838983         0.747328         1.062901
 C        -1.542646         1.875168         0.151549
 C        -2.581544         2.361028         1.244585
 O        -1.927664         3.186077         2.248328
 C        -1.574878         1.925721         2.986145
 C        -0.351011         1.288794         2.281152
 C        -2.700450         1.178591         2.183085
 C        -1.969873        -0.022906         1.753026
 H         0.900310         0.608603         0.073248
 H        -0.677017         2.635888        -0.169716
 H        -2.070070         1.422828        -0.743619
 H        -3.545998         2.827011         0.931272
 H        -1.542131         2.079645         4.061217
 H         0.387256         2.146155         2.307690
 H         0.312975         0.630473         2.908248
 H        -3.692348         1.058416         2.618557
 H        -1.467095        -0.577253         2.562892
 H        -2.460749        -0.822920         1.136368
