19
Iteration:  1629charge 0 multiplicity 1
 O         0.153094        -0.128784         0.434527
 C        -0.808421         0.760700         0.998224
 C        -1.624775         1.774655         0.163250
 C        -2.668218         2.156973         1.293679
 O        -2.009212         3.236427         2.122809
 C        -1.516856         2.096393         2.932436
 C        -0.206773         1.556415         2.275371
 C        -2.597094         1.128964         2.390044
 C        -1.917632        -0.020030         1.725874
 H         0.349869         0.228638        -0.460517
 H        -1.081740         2.625043         0.035620
 H        -2.121152         1.509559        -0.775240
 H        -3.550237         2.497319         0.812236
 H        -1.589679         2.276815         3.988557
 H         0.492818         2.336230         2.035893
 H         0.417952         0.843299         2.906608
 H        -3.472398         1.109309         3.010121
 H        -1.567833        -0.804446         2.438263
 H        -2.529908        -0.516937         0.876369
