19
Iteration:  3637
 O         0.142304         0.223743         0.261616
 C        -0.864268         0.759714         1.063759
 C        -1.638899         1.639383         0.164553
 C        -2.686187         2.294989         1.270237
 O        -1.825482         3.147527         2.125463
 C        -1.430186         2.026107         2.927467
 C        -0.220318         1.443548         2.295806
 C        -2.660167         1.108694         2.428617
 C        -2.044765        -0.068653         1.769998
 H         0.603770        -0.552493         0.633294
 H        -1.116619         2.472327        -0.436754
 H        -2.298391         0.996424        -0.518276
 H        -3.534268         2.883431         0.854449
 H        -1.410165         2.472268         3.993183
 H         0.477571         2.246020         1.972247
 H         0.393283         0.763791         2.849117
 H        -3.613451         1.022881         2.998865
 H        -1.761599        -0.866964         2.510289
 H        -2.694524        -0.535053         1.027253
