19
Iteration:  2991
 O         0.236450         0.188233         0.229208
 C        -0.821050         0.703836         1.039396
 C        -1.639790         1.618901         0.174387
 C        -2.668282         2.216202         1.249845
 O        -1.848568         3.144048         2.129587
 C        -1.485618         2.048250         2.955068
 C        -0.195853         1.488642         2.339189
 C        -2.661270         1.198871         2.422316
 C        -2.096243        -0.049537         1.827992
 H        -0.250472        -0.330814        -0.422871
 H        -1.053937         2.418087        -0.116367
 H        -2.139176         1.095806        -0.644140
 H        -3.498342         2.684378         0.901714
 H        -1.502047         2.302389         3.989703
 H         0.469428         2.398509         2.035233
 H         0.353257         0.765034         3.056307
 H        -3.626895         1.071892         2.913951
 H        -1.694043        -0.785927         2.485547
 H        -2.862296        -0.352668         1.087830
