19
Iteration:   148charge 0 multiplicity 1
 O         0.351217         0.197197         0.313370
 C        -0.891860         0.637685         1.071141
 C        -1.549469         1.789353         0.273097
 C        -2.565127         2.368628         1.249361
 O        -1.926333         3.226318         2.189124
 C        -1.545487         2.051159         2.982099
 C        -0.244270         1.357921         2.372714
 C        -2.710170         1.186453         2.280724
 C        -2.150058        -0.219280         1.579936
 H         0.266383        -0.726629        -0.071027
 H        -0.835644         2.597146         0.007244
 H        -2.030625         1.370168        -0.592263
 H        -3.468233         2.866237         0.789026
 H        -1.554539         2.224838         4.088781
 H         0.743133         1.873485         2.186932
 H         0.007455         0.482896         3.099444
 H        -3.704680         1.205853         2.781552
 H        -1.878293        -1.001783         2.314103
 H        -2.884220        -0.439229         0.774869
