19
Iteration:  4889
 O         0.106855        -0.066539         0.249046
 C        -0.785513         0.707457         0.996041
 C        -1.471686         1.916561         0.242169
 C        -2.658449         2.275635         1.358476
 O        -2.042760         3.202978         2.227533
 C        -1.536780         2.082807         2.922124
 C        -0.186209         1.449146         2.179824
 C        -2.659837         1.126405         2.390836
 C        -1.924454        -0.069774         1.758929
 H        -0.367953        -0.640893        -0.394287
 H        -0.765728         2.853458         0.203606
 H        -1.798420         1.568170        -0.722900
 H        -3.678783         2.540910         0.791703
 H        -1.464306         2.221639         4.017690
 H         0.411545         2.323905         2.028956
 H         0.414909         0.992987         2.958195
 H        -3.482326         0.769606         2.999977
 H        -1.547849        -0.796614         2.541000
 H        -2.499191        -0.592566         0.897455
