19
Iteration:  4093charge 0 multiplicity 1
 O         0.100190        -0.141922         0.340226
 C        -0.832374         0.768267         1.008945
 C        -1.562940         1.852532         0.207212
 C        -2.618014         2.301047         1.336524
 O        -1.974938         3.189877         2.321405
 C        -1.482748         1.986571         2.934940
 C        -0.164430         1.570718         2.206620
 C        -2.667494         1.126855         2.329771
 C        -2.026747        -0.101798         1.627292
 H         0.648911         0.349246        -0.282285
 H        -0.961891         2.699781        -0.038262
 H        -1.928271         1.290112        -0.720885
 H        -3.481458         2.785440         0.898448
 H        -1.465104         2.033677         4.038622
 H         0.509484         2.417149         1.896765
 H         0.392952         0.874016         2.821744
 H        -3.599456         1.224396         2.924638
 H        -1.560237        -0.817520         2.338143
 H        -2.733052        -0.401297         0.855640
