19
Iteration:   629charge 0 multiplicity 1
 O         0.152315        -0.028348         0.360139
 C        -0.800089         0.720787         1.072318
 C        -1.450484         1.891264         0.252523
 C        -2.620652         2.290099         1.251268
 O        -2.092261         3.242880         2.245065
 C        -1.555267         2.027442         2.899102
 C        -0.188961         1.405111         2.278964
 C        -2.602132         1.146637         2.298874
 C        -1.993754        -0.046797         1.645810
 H        -0.326226        -0.617731        -0.231960
 H        -0.738788         2.749094         0.316500
 H        -1.584867         1.594780        -0.770347
 H        -3.524879         2.614471         0.673395
 H        -1.579833         2.265052         3.964104
 H         0.708385         1.984150         2.072692
 H         0.186359         0.574842         2.967595
 H        -3.566443         0.967988         2.850463
 H        -1.755940        -0.911794         2.322139
 H        -2.669831        -0.580067         0.897027
