19
Iteration:  3390charge 0 multiplicity 1
 O         0.201573         0.124770         0.133667
 C        -0.771757         0.635272         1.045522
 C        -1.721146         1.695215         0.240225
 C        -2.671340         2.328516         1.256856
 O        -1.912050         3.211616         2.127295
 C        -1.537660         2.086211         2.908526
 C        -0.220210         1.363061         2.356245
 C        -2.639539         1.160829         2.365209
 C        -1.953560        -0.056148         1.819480
 H         0.755497        -0.543220         0.611079
 H        -1.044697         2.633785        -0.263729
 H        -2.310390         1.158240        -0.544140
 H        -3.582095         2.993984         1.096395
 H        -1.381247         2.440318         3.940716
 H         0.613453         2.025371         2.148298
 H        -0.140719         0.611124         3.119455
 H        -3.466309         1.153991         3.099328
 H        -1.710417        -0.566642         2.753732
 H        -2.606578        -0.559934         1.070895
