19
Iteration:  2514
 O         0.061157        -0.047364         0.362943
 C        -0.848763         0.725338         1.106423
 C        -1.587664         1.739726         0.253080
 C        -2.622345         2.296368         1.225574
 O        -2.010998         3.257161         2.156611
 C        -1.427901         2.061502         2.926567
 C        -0.164252         1.507245         2.227875
 C        -2.682047         1.092272         2.327566
 C        -1.951788        -0.083272         1.743908
 H         0.582823         0.493476        -0.288705
 H        -0.984246         2.654885        -0.007345
 H        -2.069379         1.374673        -0.662019
 H        -3.485727         2.821133         0.781743
 H        -1.098869         2.305644         3.937125
 H         0.561341         2.292774         2.180337
 H         0.162675         0.481268         2.766901
 H        -3.592806         0.917568         2.803444
 H        -1.490846        -0.714245         2.529158
 H        -2.405079        -0.774846         1.044307
