19
Iteration:  3621charge 0 multiplicity 1
 O         0.149808         0.096572         0.202237
 C        -0.831639         0.672990         1.074685
 C        -1.738989         1.703055         0.324555
 C        -2.614233         2.318635         1.275640
 O        -1.948394         3.280938         2.152149
 C        -1.500623         2.082454         2.927771
 C        -0.192450         1.413769         2.271777
 C        -2.638006         1.213866         2.365759
 C        -1.926128        -0.144187         1.702260
 H         0.678888        -0.565873         0.714543
 H        -1.114927         2.358835        -0.213951
 H        -2.129695         1.211883        -0.538645
 H        -3.555365         2.651453         0.849474
 H        -1.332559         2.132791         3.969839
 H         0.520001         2.121047         1.860477
 H         0.204252         0.658966         3.014133
 H        -3.443888         1.024477         3.072403
 H        -1.625737        -0.843898         2.487950
 H        -2.547502        -0.622944         0.924097
