19
Iteration:  4571
 O         0.025447         0.200713         0.155007
 C        -0.849431         0.679262         1.104783
 C        -1.607148         1.688611         0.224092
 C        -2.574901         2.306397         1.205311
 O        -1.936112         3.173003         2.213526
 C        -1.481297         2.008442         2.965755
 C        -0.221594         1.462688         2.320706
 C        -2.567441         1.150383         2.301445
 C        -1.956207        -0.093741         1.776190
 H         0.882884        -0.151183         0.482291
 H        -1.077442         2.447698        -0.304607
 H        -2.189660         1.124997        -0.559479
 H        -3.577743         2.796866         0.997257
 H        -1.232865         2.252559         3.953560
 H         0.471623         2.216237         2.206514
 H        -0.019825         0.530921         2.950964
 H        -3.540362         0.985898         2.820588
 H        -1.845271        -0.593156         2.701015
 H        -2.631932        -0.726294         1.193942
