19
Iteration:  4366charge 0 multiplicity 1
 O        -0.000316        -0.178916         0.183910
 C        -0.772709         0.739770         1.096870
 C        -1.545037         1.862271         0.298422
 C        -2.641218         2.244124         1.336107
 O        -2.053270         3.260342         2.239887
 C        -1.464331         2.108084         2.971416
 C        -0.187069         1.528171         2.241350
 C        -2.659547         1.072855         2.297727
 C        -1.875515        -0.073737         1.679882
 H         0.769904         0.291612        -0.175221
 H        -0.928872         2.712448         0.109641
 H        -1.979642         1.456620        -0.677262
 H        -3.559800         2.586220         0.827084
 H        -1.564307         2.280624         4.051330
 H         0.515245         2.440800         1.983087
 H         0.476811         0.943060         2.860401
 H        -3.517090         0.970877         3.018768
 H        -1.544780        -0.812924         2.424407
 H        -2.501092        -0.675687         0.862656
