19
Iteration:  1848
 O         0.176856         0.036357         0.209615
 C        -0.797640         0.688586         1.084585
 C        -1.653415         1.666960         0.327449
 C        -2.654684         2.266344         1.210772
 O        -1.986030         3.198314         2.055517
 C        -1.486988         2.103955         2.912272
 C        -0.237130         1.455420         2.233815
 C        -2.686648         1.149738         2.344237
 C        -1.932176        -0.086071         1.969359
 H         0.977619         0.600927         0.187058
 H        -1.065662         2.465662        -0.078204
 H        -2.143731         1.244813        -0.632832
 H        -3.558717         2.733541         0.900069
 H        -1.415651         2.503016         3.929216
 H         0.311342         2.385013         1.907282
 H         0.480461         0.760388         2.751865
 H        -3.646799         1.156862         2.995934
 H        -1.521210        -0.675197         2.723000
 H        -2.517310        -0.594472         1.204951
