19
Iteration:  2004
 O         0.123286        -0.070495         0.305491
 C        -0.836942         0.778660         1.024688
 C        -1.731707         1.702582         0.129267
 C        -2.660912         2.199984         1.233183
 O        -2.079060         3.241672         2.160298
 C        -1.458520         2.105209         2.930068
 C        -0.131341         1.539501         2.179925
 C        -2.597156         1.151415         2.399593
 C        -1.844062        -0.068144         1.906414
 H         1.008244         0.180806         0.585612
 H        -0.989049         2.415410        -0.517546
 H        -2.349165         1.024310        -0.495875
 H        -3.607601         2.543834         0.837339
 H        -1.594793         2.400830         4.025872
 H         0.623588         2.404362         1.883255
 H         0.430440         0.747341         2.814804
 H        -3.577021         1.169256         2.900921
 H        -1.365921        -0.680288         2.695610
 H        -2.592072        -0.574951         1.302006
