19
Iteration:   867charge 0 multiplicity 1
 O         0.120947        -0.068056         0.290623
 C        -0.725641         0.711601         1.036036
 C        -1.519720         1.739924         0.205577
 C        -2.585433         2.299967         1.174125
 O        -2.086400         3.235522         2.342437
 C        -1.540375         2.026827         2.938905
 C        -0.240734         1.628884         2.279324
 C        -2.606022         1.130410         2.344770
 C        -2.028313        -0.055028         1.635226
 H         0.431505        -0.875275         0.719739
 H        -0.787112         2.294018        -0.259774
 H        -1.982146         1.141891        -0.479726
 H        -3.519014         2.725995         0.703191
 H        -1.375896         2.133753         4.023012
 H         0.377614         2.399946         1.851366
 H         0.473081         1.101088         2.928890
 H        -3.536124         1.239586         2.945549
 H        -1.580126        -0.784688         2.307732
 H        -2.533084        -0.560883         0.891081
