19
Iteration:  1986charge 0 multiplicity 1
 O         0.017008        -0.000573         0.314985
 C        -0.763529         0.741459         1.086833
 C        -1.708457         1.665845         0.249581
 C        -2.709848         2.186133         1.266087
 O        -1.902043         3.161714         2.005878
 C        -1.473180         2.131730         2.886219
 C        -0.264032         1.605785         2.297901
 C        -2.608411         1.112700         2.407742
 C        -1.858564        -0.073715         1.791556
 H         0.890318         0.391876         0.224310
 H        -1.249356         2.541752        -0.113485
 H        -2.014488         1.115246        -0.626715
 H        -3.698751         2.619472         0.931223
 H        -1.212330         2.470235         3.856755
 H         0.319872         2.495667         2.092719
 H         0.471988         0.983152         2.893420
 H        -3.329642         0.926807         3.138881
 H        -1.355621        -0.570878         2.635374
 H        -2.464143        -0.715174         1.121917
