19
Iteration:   528charge 0 multiplicity 1
 O         0.184655         0.042574         0.313735
 C        -0.792877         0.727334         1.024235
 C        -1.508296         1.895018         0.295921
 C        -2.654614         2.307597         1.310877
 O        -1.956022         3.185560         2.099767
 C        -1.495805         2.026247         2.911769
 C        -0.278287         1.310991         2.337148
 C        -2.704940         1.157065         2.289738
 C        -2.089473        -0.083194         1.649337
 H         0.993494         0.259723         0.832830
 H        -0.866070         2.699850         0.121507
 H        -1.881322         1.639408        -0.693654
 H        -3.528475         2.892491         0.876217
 H        -1.386597         2.239612         3.996109
 H         0.679039         1.879866         2.279797
 H        -0.026516         0.433869         3.016035
 H        -3.510914         0.967381         2.940381
 H        -1.586551        -0.805548         2.392223
 H        -2.684884        -0.667766         0.911203
