19
Iteration:  3115
 O         0.176371         0.123610         0.205118
 C        -0.834312         0.724510         1.016913
 C        -1.788235         1.651589         0.199960
 C        -2.622692         2.255303         1.283461
 O        -1.857849         3.182548         2.095355
 C        -1.408835         2.102432         2.982801
 C        -0.277646         1.520925         2.339331
 C        -2.654942         1.180604         2.394745
 C        -1.960470        -0.121279         1.733167
 H         0.512761        -0.599483         0.737112
 H        -1.097810         2.432607        -0.307012
 H        -2.185179         1.046489        -0.536383
 H        -3.658942         2.638439         1.062732
 H        -1.494649         2.374844         4.021236
 H         0.541444         2.179308         2.163314
 H         0.278721         0.848382         3.051307
 H        -3.516397         1.151225         3.082609
 H        -1.554033        -0.881108         2.451788
 H        -2.779379        -0.568914         1.174901
