19
Iteration:  4337charge 0 multiplicity 1
 O         0.125451        -0.042273         0.249007
 C        -0.807466         0.767929         1.082696
 C        -1.570094         1.821022         0.224282
 C        -2.656207         2.252891         1.250296
 O        -2.097208         3.189959         2.242087
 C        -1.367772         2.071105         2.917452
 C        -0.240101         1.413422         2.267463
 C        -2.584696         1.130710         2.376275
 C        -1.976576        -0.044079         1.736381
 H         0.091318         0.417483        -0.604674
 H        -0.780565         2.619969        -0.075793
 H        -2.035999         1.447434        -0.659992
 H        -3.522610         2.680184         0.773086
 H        -1.501674         2.289891         3.999419
 H         0.574769         2.152457         2.014831
 H         0.129272         0.534426         2.955584
 H        -3.226260         1.130929         3.214971
 H        -1.487408        -0.846877         2.306218
 H        -2.688377        -0.467306         1.090534
