19
Iteration:  3696charge 0 multiplicity 1
 O         0.027697        -0.064510         0.212049
 C        -0.801250         0.688279         1.031681
 C        -1.578946         1.778619         0.260002
 C        -2.610062         2.244629         1.243485
 O        -2.118271         3.257240         2.290694
 C        -1.454360         2.093224         2.898573
 C        -0.113612         1.537674         2.278742
 C        -2.572287         1.198653         2.341084
 C        -1.965226        -0.103143         1.749404
 H         0.825050        -0.404503         0.623373
 H        -0.958101         2.639839        -0.211871
 H        -2.064795         1.328422        -0.604193
 H        -3.499129         2.510771         0.629113
 H        -1.336538         2.135527         3.941284
 H         0.525433         2.289603         1.814655
 H         0.409633         0.738382         2.917905
 H        -3.528986         1.173529         2.869262
 H        -1.566201        -0.889289         2.530809
 H        -2.644910        -0.575812         0.937065
