19
Iteration:  2771
 O         0.108677        -0.165144         0.307666
 C        -0.832186         0.734920         0.988276
 C        -1.533364         1.810643         0.217965
 C        -2.660641         2.304033         1.278194
 O        -1.949810         3.146968         2.149803
 C        -1.504261         2.046271         2.977164
 C        -0.170392         1.597731         2.323743
 C        -2.632752         1.162999         2.423175
 C        -1.981338        -0.048402         1.679605
 H         0.420584         0.382398        -0.412912
 H        -1.123360         2.613666        -0.272717
 H        -2.192684         1.283261        -0.518487
 H        -3.474317         2.637294         0.810962
 H        -1.583697         2.308494         4.035248
 H         0.412399         2.590905         2.260477
 H         0.229408         0.880297         3.064466
 H        -3.487327         0.961334         3.144935
 H        -1.678119        -0.975044         2.096088
 H        -2.708986        -0.417176         0.943325
