19
Iteration:  1186
 O         0.329070         0.097214         0.326661
 C        -0.884291         0.701277         1.149299
 C        -1.585136         1.736930         0.330003
 C        -2.658595         2.239327         1.244973
 O        -1.967792         3.215556         2.114332
 C        -1.536353         2.115533         2.895080
 C        -0.173206         1.440993         2.279477
 C        -2.667423         1.193876         2.334157
 C        -2.081540        -0.160149         1.713518
 H        -0.030657        -0.328552        -0.466915
 H        -0.964572         2.568126        -0.126783
 H        -2.007427         1.293606        -0.625224
 H        -3.609795         2.706868         0.826835
 H        -1.462014         2.301283         3.978078
 H         0.627552         2.075420         1.901550
 H         0.199487         0.762835         2.923402
 H        -3.471355         1.260722         3.038044
 H        -1.876368        -0.994575         2.395185
 H        -2.567368        -0.577201         0.873014
