19
Iteration:  1871
 O         0.135938        -0.032099         0.200808
 C        -0.818307         0.652317         1.077065
 C        -1.624462         1.728517         0.204929
 C        -2.692210         2.193848         1.223646
 O        -2.100706         3.306011         2.144267
 C        -1.446439         2.145155         2.885334
 C        -0.204635         1.532457         2.306644
 C        -2.573815         1.165477         2.396642
 C        -1.881659        -0.096932         1.802825
 H         0.901770        -0.282074         0.744352
 H        -1.087402         2.504585        -0.373328
 H        -2.116681         1.141650        -0.633500
 H        -3.682146         2.454028         0.905151
 H        -1.413048         2.411582         3.970283
 H         0.738222         2.164357         2.073720
 H         0.061603         0.862187         3.192624
 H        -3.495829         1.053373         3.102233
 H        -1.318483        -0.637186         2.548552
 H        -2.686328        -0.619341         1.298568
