19
Iteration:  3679charge 0 multiplicity 1
 O         0.064352         0.019307         0.230907
 C        -0.780732         0.718163         1.076331
 C        -1.645383         1.760151         0.238734
 C        -2.641834         2.347701         1.318607
 O        -1.997037         3.204822         2.175700
 C        -1.462990         2.112399         2.888651
 C        -0.226476         1.436713         2.224484
 C        -2.651567         1.139493         2.343391
 C        -1.893101        -0.085972         1.699096
 H         0.683046        -0.266061         0.910970
 H        -0.891997         2.405036        -0.131043
 H        -2.139693         0.997920        -0.429826
 H        -3.593455         2.777851         1.043746
 H        -1.228635         2.332744         3.998105
 H         0.642823         2.152207         2.089757
 H         0.140936         0.786936         2.999739
 H        -3.378904         0.761029         3.135174
 H        -1.659861        -0.720281         2.497070
 H        -2.460262        -0.668654         1.022689
