19
Iteration:  1688
 O         0.190077         0.030870         0.230171
 C        -0.801159         0.651771         1.085100
 C        -1.558279         1.712988         0.219013
 C        -2.637119         2.234400         1.235910
 O        -1.989690         3.153604         2.129100
 C        -1.482913         2.102859         2.911837
 C        -0.244622         1.569839         2.226757
 C        -2.641205         1.142017         2.429338
 C        -2.048668        -0.092870         1.853764
 H         1.002366         0.138394         0.747005
 H        -0.819774         2.551761        -0.261067
 H        -2.181529         1.288388        -0.587654
 H        -3.598234         2.682370         0.855398
 H        -1.371958         2.440027         4.004851
 H         0.051141         2.478778         1.628399
 H         0.470030         1.208719         2.880628
 H        -3.635343         1.121719         2.998374
 H        -1.846443        -1.021927         2.556592
 H        -2.735364        -0.417359         1.010622
