19
Iteration:  3179charge 0 multiplicity 1
 O        -0.007539        -0.143966         0.218775
 C        -0.823776         0.753681         0.994300
 C        -1.548504         1.779956         0.184685
 C        -2.647465         2.313643         1.301490
 O        -2.082781         3.300162         2.199898
 C        -1.539721         2.069856         2.950751
 C        -0.196433         1.554742         2.277434
 C        -2.560689         1.101257         2.396780
 C        -1.803502        -0.091336         1.746215
 H         0.605902        -0.520155         0.898066
 H        -0.861140         2.618211        -0.172153
 H        -2.222575         1.311177        -0.614226
 H        -3.464693         2.749861         0.782447
 H        -1.258202         2.236644         3.970416
 H         0.539503         2.317742         1.918944
 H         0.331234         0.789040         2.989522
 H        -3.525659         0.878967         2.923714
 H        -1.281327        -0.764511         2.478237
 H        -2.415470        -0.613277         1.026799
