19
Iteration:  3052
 O         0.067144        -0.208270         0.281037
 C        -0.813745         0.721277         1.025307
 C        -1.528264         1.793137         0.254444
 C        -2.611407         2.217414         1.309199
 O        -2.056661         3.214038         2.216846
 C        -1.513799         2.086163         2.974057
 C        -0.182166         1.583208         2.172883
 C        -2.592478         1.153573         2.433504
 C        -1.960701         0.003410         1.724265
 H         0.876685         0.163351        -0.068551
 H        -1.083046         2.747647        -0.228190
 H        -2.033041         1.242891        -0.617086
 H        -3.606210         2.525841         0.777235
 H        -1.227585         2.389316         4.027267
 H         0.123491         2.536829         1.725584
 H         0.515864         1.148787         2.882178
 H        -3.547263         1.036338         2.907093
 H        -1.528570        -0.922400         2.102012
 H        -2.660126        -0.387275         0.936364
