19
Iteration:  4231charge 0 multiplicity 1
 O        -0.068597        -0.034214         0.177352
 C        -0.731988         0.704423         1.137247
 C        -1.547183         1.922353         0.293009
 C        -2.653284         2.265257         1.226325
 O        -2.097543         3.147581         2.244164
 C        -1.481867         2.023985         2.942236
 C        -0.092908         1.459796         2.250353
 C        -2.588930         1.162014         2.336389
 C        -1.913816        -0.057524         1.670057
 H         0.702150        -0.360168         0.683476
 H        -0.826968         2.697754         0.037293
 H        -1.882873         1.386069        -0.617123
 H        -3.576734         2.736816         0.727843
 H        -1.583445         2.233711         3.995775
 H         0.502467         2.283843         2.010592
 H         0.511449         0.798016         2.833816
 H        -3.329864         1.112827         3.113269
 H        -1.710543        -0.681194         2.519604
 H        -2.466679        -0.506306         0.804890
