19
Iteration:  2384
 O         0.097856        -0.093680         0.220191
 C        -0.726106         0.789601         1.059571
 C        -1.673235         1.723296         0.277234
 C        -2.734507         2.192343         1.236700
 O        -1.976138         3.249180         2.153064
 C        -1.461704         2.107715         2.912031
 C        -0.196441         1.497470         2.287822
 C        -2.650251         1.155686         2.332009
 C        -1.921965        -0.005228         1.785498
 H         0.948286        -0.242587         0.641215
 H        -1.365851         2.602716        -0.388942
 H        -2.304243         1.018989        -0.341288
 H        -3.625550         2.507607         0.751902
 H        -1.162853         2.408909         3.968336
 H         0.546846         2.220904         2.145906
 H         0.223925         0.920357         3.088890
 H        -3.486841         0.991860         2.951035
 H        -1.387935        -0.551521         2.605831
 H        -2.395055        -0.613257         1.032572
