19
Iteration:  2438
 O         0.242194        -0.087535         0.369304
 C        -0.803122         0.723954         0.993241
 C        -1.622353         1.753899         0.184895
 C        -2.727978         2.300728         1.314428
 O        -1.998605         3.210879         2.149500
 C        -1.488730         2.036323         2.935783
 C        -0.166631         1.544524         2.201834
 C        -2.684448         1.160675         2.357254
 C        -1.934610        -0.038177         1.823967
 H        -0.267997        -0.515649        -0.328268
 H        -1.049933         2.673571        -0.148409
 H        -2.164891         1.475630        -0.738929
 H        -3.609080         2.782875         0.917654
 H        -1.430448         2.256792         4.026495
 H         0.437640         2.342500         1.900938
 H         0.459705         0.936529         2.869936
 H        -3.523279         1.030634         2.983974
 H        -1.463554        -0.830317         2.438266
 H        -2.573308        -0.628920         1.170337
