19
Iteration:  2951
 O         0.177328        -0.088889         0.316383
 C        -0.802910         0.742116         1.007914
 C        -1.716821         1.788835         0.221226
 C        -2.664799         2.294413         1.285382
 O        -1.965656         3.273679         2.245817
 C        -1.529918         2.120527         2.903448
 C        -0.277630         1.489697         2.214790
 C        -2.594454         1.112095         2.362330
 C        -1.851913        -0.061671         1.675793
 H        -0.033795        -1.056780         0.316694
 H        -0.930750         2.690894         0.001754
 H        -1.948432         1.443586        -0.784727
 H        -3.726116         2.720826         1.018091
 H        -1.287740         2.252109         3.973098
 H         0.577092         2.035933         2.013425
 H         0.229824         0.851626         2.916669
 H        -3.507631         0.913646         2.951607
 H        -1.320442        -0.680141         2.487804
 H        -2.604547        -0.672090         1.183190
