19
Iteration:  2755charge 0 multiplicity 1
 O         0.108547         0.003638         0.319655
 C        -0.784023         0.746167         1.089933
 C        -1.683117         1.652229         0.168685
 C        -2.551680         2.228080         1.242145
 O        -1.938644         3.230238         2.185419
 C        -1.473954         2.088683         3.010636
 C        -0.224427         1.471313         2.366791
 C        -2.593813         1.145424         2.336171
 C        -2.025715        -0.035463         1.653776
 H         0.259783         0.457131        -0.512475
 H        -0.946318         2.474859        -0.243811
 H        -2.162019         1.115040        -0.643817
 H        -3.618995         2.685718         0.934922
 H        -1.373688         2.388628         4.093389
 H         0.412200         2.198386         1.893869
 H         0.379113         0.733996         3.012804
 H        -3.537463         1.148637         2.844909
 H        -1.819107        -0.856015         2.418271
 H        -2.695079        -0.366884         0.835796
