19
Iteration:  3389charge 0 multiplicity 1
 O         0.208417         0.123066         0.131195
 C        -0.770329         0.634987         1.038501
 C        -1.726140         1.698494         0.249151
 C        -2.674287         2.334832         1.256637
 O        -1.914274         3.210762         2.123934
 C        -1.539642         2.086597         2.908069
 C        -0.215002         1.348999         2.358902
 C        -2.639128         1.167961         2.366959
 C        -1.962034        -0.050436         1.823284
 H         0.762342        -0.523436         0.601307
 H        -1.032960         2.619247        -0.276893
 H        -2.289574         1.160584        -0.554093
 H        -3.586984         2.965749         1.087199
 H        -1.382758         2.399548         3.935331
 H         0.570456         2.061075         2.121011
 H        -0.124401         0.610247         3.152126
 H        -3.447911         1.141338         3.087024
 H        -1.693657        -0.565916         2.781314
 H        -2.586158        -0.581821         1.077818
