19
Iteration:     4
 O         0.164384         0.064237         0.296446
 C        -0.811884         0.720699         1.076481
 C        -1.459342         1.915319         0.229101
 C        -2.529681         2.358437         1.214561
 O        -1.915135         3.156755         2.268120
 C        -1.603736         1.952464         2.995742
 C        -0.301584         1.337072         2.403219
 C        -2.736746         1.178023         2.184884
 C        -2.045611        -0.044466         1.556739
 H         0.542623        -0.663741         0.828414
 H        -0.873261         2.714576        -0.077577
 H        -1.924906         1.403440        -0.642477
 H        -3.483654         2.769150         0.822255
 H        -1.567599         2.198410         4.079666
 H         0.506521         2.080564         2.226734
 H         0.170638         0.510398         3.064398
 H        -3.642673         1.005754         2.765102
 H        -1.698977        -0.759719         2.346970
 H        -2.580245        -0.518050         0.747566
