19
Iteration:  1965charge 0 multiplicity 1
 O         0.143567        -0.028788         0.271754
 C        -0.791935         0.721379         1.141449
 C        -1.703192         1.687318         0.249716
 C        -2.691906         2.197445         1.278873
 O        -1.968246         3.217411         1.962033
 C        -1.516524         2.177596         2.936537
 C        -0.131581         1.568667         2.300894
 C        -2.607597         1.143942         2.444786
 C        -1.933373        -0.099261         1.838867
 H         0.398183         0.667673        -0.381798
 H        -1.307889         2.485314        -0.250532
 H        -2.152054         1.070525        -0.536117
 H        -3.755601         2.427831         0.985402
 H        -1.518034         2.344918         3.986226
 H         0.683248         2.090268         1.951809
 H         0.360857         0.820302         2.944345
 H        -3.523042         0.985585         3.018292
 H        -1.485951        -0.904803         2.452350
 H        -2.418045        -0.489197         0.921418
