19
Iteration:  3947charge 0 multiplicity 1
 O         0.172486        -0.007205         0.327483
 C        -0.831288         0.715462         1.015057
 C        -1.548779         1.812923         0.235758
 C        -2.616945         2.276709         1.276644
 O        -1.966260         3.247547         2.207043
 C        -1.472500         1.973986         3.022604
 C        -0.241198         1.481451         2.187149
 C        -2.660089         1.182880         2.407190
 C        -2.008995        -0.118263         1.678077
 H        -0.103791        -0.153046        -0.608143
 H        -0.951055         2.736043        -0.107315
 H        -2.114255         1.448164        -0.665514
 H        -3.586271         2.747717         0.893518
 H        -1.373119         2.105549         4.073692
 H         0.444347         2.343214         2.025237
 H         0.498240         0.772153         2.671876
 H        -3.591163         0.954655         3.004406
 H        -1.655014        -0.826711         2.435839
 H        -2.732907        -0.593046         0.986840
