19
Iteration:  1146charge 0 multiplicity 1
 O         0.145366        -0.128864         0.421643
 C        -0.723230         0.807553         1.022243
 C        -1.626814         1.879118         0.142868
 C        -2.619404         2.264948         1.191612
 O        -2.032278         3.224834         2.279080
 C        -1.533699         2.050543         2.919483
 C        -0.227988         1.535959         2.287916
 C        -2.663405         1.123635         2.250479
 C        -1.840255        -0.077906         1.734157
 H        -0.560900        -0.784088         0.237643
 H        -1.025447         2.708335        -0.204182
 H        -2.229535         1.583018        -0.708958
 H        -3.530331         2.619340         0.707873
 H        -1.584108         2.160511         3.984440
 H         0.562745         2.325056         2.143646
 H         0.352105         0.657551         2.894949
 H        -3.563615         1.039386         2.809763
 H        -1.482250        -0.763550         2.515952
 H        -2.353047        -0.801935         0.952899
