19
Iteration:  4547
 O         0.167443         0.064699         0.162042
 C        -0.834464         0.779462         1.012025
 C        -1.651349         1.768355         0.223942
 C        -2.695154         2.291213         1.276087
 O        -1.904444         3.223033         2.158618
 C        -1.522791         2.034574         2.942873
 C        -0.189049         1.399969         2.348779
 C        -2.647052         1.117497         2.423634
 C        -1.912457        -0.066874         1.740435
 H         0.503973        -0.654988         0.731190
 H        -1.285648         2.633521        -0.227399
 H        -2.241942         1.272217        -0.577910
 H        -3.683814         2.789663         1.031611
 H        -1.342635         2.308838         3.992638
 H         0.426572         2.255424         2.260676
 H         0.151177         0.518157         2.873425
 H        -3.636278         1.029183         2.986462
 H        -1.594473        -0.908816         2.373580
 H        -2.498919        -0.449407         0.929585
