19
Iteration:  2184
 O         0.088600        -0.048063         0.275245
 C        -0.800699         0.701072         1.103475
 C        -1.646950         1.587098         0.218498
 C        -2.606287         2.192974         1.214859
 O        -2.121590         3.189956         2.153799
 C        -1.410108         2.202822         2.907822
 C        -0.189745         1.629080         2.159251
 C        -2.552733         1.160469         2.390030
 C        -1.904412        -0.051718         1.930606
 H         0.567939         0.609047        -0.287101
 H        -1.086594         2.441298        -0.121227
 H        -2.254727         1.181530        -0.668250
 H        -3.580968         2.562124         0.740936
 H        -1.354927         2.416601         3.947901
 H         0.481309         2.274651         1.739747
 H         0.212167         0.907696         2.854613
 H        -3.454073         1.007363         3.093525
 H        -1.488640        -0.822864         2.592946
 H        -2.613053        -0.631723         1.275515
