19
Iteration:  2809
 O         0.035163        -0.122774         0.315402
 C        -0.816998         0.756549         0.977043
 C        -1.537220         1.835553         0.197122
 C        -2.595537         2.344862         1.232833
 O        -2.122144         3.209906         2.287999
 C        -1.457704         2.042323         2.915502
 C        -0.170432         1.506291         2.182474
 C        -2.598905         1.129377         2.313239
 C        -1.969165        -0.113511         1.809229
 H         0.954561         0.173112         0.447483
 H        -0.779299         2.581662        -0.286695
 H        -2.169743         1.406227        -0.584047
 H        -3.505399         2.826880         0.615303
 H        -1.340098         2.241640         3.997764
 H         0.656348         2.088294         1.938634
 H         0.307832         0.789344         2.842920
 H        -3.290088         1.143005         3.122339
 H        -1.482213        -0.683286         2.661812
 H        -2.649054        -0.700996         1.185705
