19
Iteration:  3948
 O         0.173016        -0.011317         0.332034
 C        -0.839909         0.708741         1.006010
 C        -1.549859         1.820683         0.243524
 C        -2.623269         2.274298         1.273487
 O        -1.966250         3.249608         2.212826
 C        -1.481945         1.981307         3.020889
 C        -0.232833         1.478990         2.190645
 C        -2.652584         1.181560         2.407746
 C        -2.000075        -0.117224         1.664730
 H        -0.112280        -0.188538        -0.594443
 H        -0.927373         2.692551        -0.104691
 H        -2.130923         1.445272        -0.674948
 H        -3.572331         2.751182         0.925097
 H        -1.372963         2.119304         4.070063
 H         0.431324         2.368756         2.017321
 H         0.477508         0.786459         2.652911
 H        -3.569906         0.960970         2.988123
 H        -1.638948        -0.824315         2.462056
 H        -2.749554        -0.582602         0.988983
