19
Iteration:  2012charge 0 multiplicity 1
 O         0.158064        -0.085881         0.311680
 C        -0.752149         0.713334         0.958673
 C        -1.704969         1.676633         0.161319
 C        -2.629896         2.240139         1.247522
 O        -2.147714         3.291407         2.228502
 C        -1.479098         2.154258         2.890475
 C        -0.142130         1.521421         2.158959
 C        -2.614159         1.146820         2.393593
 C        -1.899116        -0.073729         1.888699
 H         1.027219         0.056285         0.696520
 H        -1.251535         2.383074        -0.567436
 H        -2.372203         1.076006        -0.501973
 H        -3.565805         2.555162         0.818983
 H        -1.113005         2.443494         3.933758
 H         0.502419         2.375928         1.990436
 H         0.468122         0.842600         2.627461
 H        -3.610876         1.090388         3.038165
 H        -1.394802        -0.628656         2.691114
 H        -2.631345        -0.747183         1.362151
