19
Iteration:  2141charge 0 multiplicity 1
 O         0.075315        -0.113051         0.356454
 C        -0.798246         0.768122         1.010345
 C        -1.761790         1.733107         0.229102
 C        -2.740387         2.193132         1.345043
 O        -1.990174         3.155849         2.085512
 C        -1.471927         2.149826         2.874948
 C        -0.172209         1.700294         2.125327
 C        -2.500970         1.091305         2.437747
 C        -1.845527        -0.054588         1.770945
 H         0.794831        -0.189584         1.032996
 H        -1.121196         2.458598        -0.060493
 H        -2.150645         1.131181        -0.619323
 H        -3.705765         2.452371         0.833032
 H        -1.269304         2.610575         3.822044
 H         0.314263         2.609919         1.915811
 H         0.311826         0.997060         2.912941
 H        -3.555311         0.997899         2.956735
 H        -1.423850        -0.701129         2.569342
 H        -2.495228        -0.747638         1.162438
