19
Iteration:   430
 O         0.158462        -0.005733         0.306205
 C        -0.730667         0.746474         1.072578
 C        -1.530066         1.781793         0.250286
 C        -2.586548         2.274688         1.273097
 O        -1.929256         3.216257         2.140044
 C        -1.572470         2.035797         3.002870
 C        -0.307063         1.377602         2.522790
 C        -2.646766         1.155627         2.334221
 C        -2.020646        -0.051317         1.502730
 H         0.370502         0.684681        -0.370196
 H        -1.064032         2.631631        -0.138659
 H        -1.792923         1.161052        -0.627636
 H        -3.606141         2.594016         0.997742
 H        -1.537211         2.325640         4.067681
 H         0.481073         1.985544         2.081698
 H         0.270230         0.654542         3.145711
 H        -3.584452         0.995799         2.770453
 H        -2.310000        -0.975764         1.981986
 H        -2.584823         0.004280         0.581220
