19
Iteration:  3226
 O         0.176960         0.013885         0.237495
 C        -0.849667         0.670156         1.011341
 C        -1.670584         1.718781         0.207589
 C        -2.614697         2.279737         1.304090
 O        -1.953418         3.215195         2.171060
 C        -1.494389         2.106360         2.943428
 C        -0.287443         1.510381         2.229750
 C        -2.621651         1.141442         2.427042
 C        -1.995593        -0.095956         1.742591
 H         0.997016        -0.072909         0.764406
 H        -0.899044         2.569932        -0.103511
 H        -2.088576         1.213719        -0.611992
 H        -3.567218         2.780590         0.884228
 H        -1.217001         2.411595         3.978651
 H         0.378283         2.317772         1.841380
 H         0.312960         0.655999         2.764639
 H        -3.357879         1.136677         3.172368
 H        -1.490205        -0.749092         2.456977
 H        -2.670357        -0.619385         1.046292
