19
Iteration:  3565charge 0 multiplicity 1
 O         0.035103        -0.096997         0.242068
 C        -0.828385         0.758265         1.071307
 C        -1.590246         1.846952         0.253771
 C        -2.635909         2.303097         1.304789
 O        -1.984754         3.216263         2.231977
 C        -1.465404         2.050273         2.863124
 C        -0.160751         1.615820         2.258823
 C        -2.655669         1.093308         2.334415
 C        -1.960058        -0.124480         1.689892
 H         0.701080        -0.612314         0.706133
 H        -0.877482         2.678613        -0.036680
 H        -1.966843         1.269288        -0.559571
 H        -3.606769         2.622498         0.861657
 H        -1.242364         2.148674         3.883045
 H         0.489630         2.341834         1.796909
 H         0.536302         1.176804         3.063696
 H        -3.470647         0.790441         2.960148
 H        -1.703214        -0.779640         2.560900
 H        -2.543830        -0.778367         0.986637
