19
Iteration:  3273
 O         0.112368         0.098418         0.142250
 C        -0.765147         0.723554         1.070744
 C        -1.673588         1.705945         0.251464
 C        -2.684384         2.248320         1.268716
 O        -1.846474         3.121627         2.094586
 C        -1.468335         2.080892         2.965261
 C        -0.218002         1.524021         2.324178
 C        -2.688290         1.170793         2.397983
 C        -1.975542        -0.036159         1.781740
 H         0.450126        -0.692995         0.555315
 H        -1.108264         2.466666        -0.168386
 H        -2.083421         0.990281        -0.483584
 H        -3.633187         2.703067         0.848091
 H        -1.428780         2.311990         4.094395
 H         0.452145         2.427900         2.113298
 H         0.233070         0.871733         3.197543
 H        -3.643335         0.920592         2.980332
 H        -1.649784        -0.766131         2.520382
 H        -2.586608        -0.475109         0.947047
