19
Iteration:   134charge 0 multiplicity 1
 O         0.207795         0.182402         0.247305
 C        -0.786247         0.708557         1.123914
 C        -1.470326         1.727946         0.309301
 C        -2.521916         2.287064         1.238764
 O        -1.900486         3.227877         2.201122
 C        -1.614555         1.999800         3.020914
 C        -0.307396         1.306365         2.349056
 C        -2.758200         1.177865         2.274530
 C        -2.052029        -0.004069         1.586007
 H         0.169477        -0.764452         0.376796
 H        -0.780777         2.378387        -0.102206
 H        -1.958852         1.271169        -0.606683
 H        -3.371980         2.746200         0.707086
 H        -1.575214         2.240894         4.112141
 H         0.254336         2.181035         2.036103
 H         0.331205         0.633843         2.917679
 H        -3.768423         0.920925         2.720962
 H        -1.981399        -0.896338         2.233299
 H        -2.528347        -0.425230         0.728563
