19
Iteration:  3108charge 0 multiplicity 1
 O         0.186513         0.066427         0.176912
 C        -0.831039         0.761659         1.005278
 C        -1.730848         1.665276         0.146672
 C        -2.659049         2.288334         1.286853
 O        -1.897177         3.182541         2.106380
 C        -1.477829         2.074944         2.991876
 C        -0.208875         1.482745         2.310068
 C        -2.650708         1.171595         2.447192
 C        -1.965762        -0.063547         1.800483
 H         0.685869        -0.581017         0.729974
 H        -1.191640         2.549523        -0.256958
 H        -2.241069         0.927551        -0.629860
 H        -3.629672         2.782938         0.910009
 H        -1.387137         2.386895         4.091677
 H         0.584522         2.270275         2.221849
 H         0.077964         0.674877         2.993385
 H        -3.510073         1.016837         3.048719
 H        -1.460056        -0.698911         2.505079
 H        -2.693253        -0.596831         1.107105
