19
Iteration:  2494charge 0 multiplicity 1
 O         0.128103         0.026005         0.249993
 C        -0.812075         0.677369         1.088707
 C        -1.596224         1.792490         0.228419
 C        -2.697261         2.240004         1.244548
 O        -1.921471         3.149983         2.106857
 C        -1.525732         2.058338         2.890317
 C        -0.199027         1.431451         2.293349
 C        -2.611191         1.221421         2.366854
 C        -2.009907        -0.073634         1.818744
 H         1.061630         0.322608         0.343376
 H        -0.990228         2.753796        -0.078440
 H        -2.148909         1.367755        -0.624541
 H        -3.625241         2.652609         0.968537
 H        -1.609153         2.314287         4.019438
 H         0.247953         2.262900         1.813801
 H         0.318635         0.786196         3.029592
 H        -3.358035         1.182938         3.066077
 H        -1.582387        -0.753149         2.594959
 H        -2.632208        -0.599367         1.105579
