19
Iteration:  2111
 O         0.186681         0.132772         0.231068
 C        -0.800327         0.677209         1.097241
 C        -1.742252         1.534777         0.214053
 C        -2.683260         2.230487         1.239406
 O        -2.044713         3.222256         2.131569
 C        -1.461030         2.135862         2.891408
 C        -0.179250         1.562615         2.129364
 C        -2.551827         1.175398         2.456510
 C        -1.918997        -0.070783         1.905325
 H         0.495880        -0.682091         0.659137
 H        -1.087353         2.262883        -0.318517
 H        -2.193482         0.946542        -0.588308
 H        -3.576427         2.586009         0.736938
 H        -1.309609         2.510689         3.960601
 H         0.464119         2.452977         1.783921
 H         0.375757         0.928907         2.916732
 H        -3.552874         1.073014         3.025952
 H        -1.649013        -0.801522         2.701638
 H        -2.622603        -0.614873         1.240168
