19
Iteration:   938charge 0 multiplicity 1
 O         0.237351         0.067530         0.263086
 C        -0.775475         0.705280         1.089806
 C        -1.630733         1.642270         0.286842
 C        -2.572319         2.297977         1.222540
 O        -1.925579         3.210774         2.166863
 C        -1.525752         2.052791         2.916806
 C        -0.253191         1.506395         2.376811
 C        -2.736343         1.194784         2.309609
 C        -2.041323        -0.104857         1.713906
 H         0.129301         0.562436        -0.558351
 H        -1.063010         2.448268        -0.220345
 H        -2.224912         0.866938        -0.270253
 H        -3.353562         2.717676         0.615996
 H        -1.429029         2.114648         4.004317
 H         0.472294         2.334414         2.251459
 H         0.371006         0.952889         3.022802
 H        -3.630070         0.976539         2.852187
 H        -1.567598        -0.798797         2.405251
 H        -2.693683        -0.879388         1.149148
