19
Iteration:  1884charge 0 multiplicity 1
 O         0.063733        -0.027236         0.306913
 C        -0.778109         0.790154         1.034436
 C        -1.669417         1.686783         0.185385
 C        -2.634728         2.203832         1.249886
 O        -2.126572         3.184496         2.117696
 C        -1.469517         2.180579         2.933511
 C        -0.191686         1.524507         2.289326
 C        -2.477808         1.166277         2.383210
 C        -1.875403        -0.043216         1.778543
 H         0.435338        -0.720154         0.895183
 H        -1.019729         2.568165        -0.177466
 H        -2.183063         1.151023        -0.581244
 H        -3.602279         2.464255         0.801935
 H        -1.350386         2.477959         4.008394
 H         0.520104         2.401056         1.928759
 H         0.410908         0.742986         2.882102
 H        -3.406643         1.024487         2.947801
 H        -1.638362        -0.948237         2.423202
 H        -2.433663        -0.497854         0.947398
