19
Iteration:  2052
 O         0.057289        -0.013452         0.318910
 C        -0.778709         0.800630         1.073428
 C        -1.653802         1.714455         0.174108
 C        -2.638202         2.141225         1.257440
 O        -2.042018         3.184137         2.061902
 C        -1.435668         2.098523         2.946993
 C        -0.146565         1.639802         2.144722
 C        -2.561560         1.113700         2.478345
 C        -1.965054        -0.093091         1.810304
 H         0.570295        -0.585679         0.939478
 H        -1.378344         2.694601        -0.117238
 H        -2.149549         1.141651        -0.623186
 H        -3.645085         2.462066         0.847023
 H        -1.353945         2.487745         3.917881
 H         0.294144         2.546268         1.754320
 H         0.600976         1.222679         2.981265
 H        -3.463398         0.982567         3.069313
 H        -1.502692        -0.719436         2.600797
 H        -2.492280        -0.665677         1.031698
