19
Iteration:  1894charge 0 multiplicity 1
 O         0.075004        -0.041279         0.360237
 C        -0.745829         0.836326         1.083117
 C        -1.622338         1.699571         0.193565
 C        -2.657151         2.167428         1.296238
 O        -2.039679         3.167838         2.106276
 C        -1.500804         2.107364         2.931906
 C        -0.143717         1.638401         2.150841
 C        -2.620335         1.126680         2.454525
 C        -1.890987        -0.066370         1.698814
 H        -0.066256        -0.891094         0.836975
 H        -1.151282         2.600055        -0.350897
 H        -2.033914         1.135199        -0.651012
 H        -3.553549         2.535888         0.821803
 H        -1.423579         2.462636         4.000982
 H         0.592495         2.528565         1.905057
 H         0.437966         0.987199         2.885760
 H        -3.523909         0.976576         3.125530
 H        -1.584815        -0.760185         2.488349
 H        -2.512290        -0.429605         0.888025
