19
Iteration:  2054
 O         0.050119        -0.005067         0.312387
 C        -0.787890         0.819521         1.087563
 C        -1.652537         1.721373         0.167030
 C        -2.638236         2.124808         1.266546
 O        -2.034834         3.161333         2.050430
 C        -1.417014         2.091810         2.947047
 C        -0.166840         1.637328         2.156397
 C        -2.558287         1.114572         2.478674
 C        -1.954825        -0.077349         1.801834
 H         0.522826        -0.616460         0.914663
 H        -1.405395         2.641274        -0.170767
 H        -2.085261         1.114504        -0.634769
 H        -3.601063         2.457817         0.826712
 H        -1.404797         2.513827         3.939924
 H         0.368605         2.478588         1.786344
 H         0.531730         1.252630         2.985659
 H        -3.529754         1.040092         3.140196
 H        -1.464464        -0.610976         2.635269
 H        -2.499372        -0.676048         1.028402
