19
Iteration:  4415charge 0 multiplicity 1
 O         0.207765         0.064093         0.282834
 C        -0.810603         0.702866         1.010240
 C        -1.727535         1.712722         0.273032
 C        -2.707585         2.369154         1.297222
 O        -1.891245         3.209844         2.227291
 C        -1.485349         2.021757         2.884322
 C        -0.279235         1.403882         2.202205
 C        -2.600218         1.143419         2.366828
 C        -1.995958        -0.087746         1.659049
 H         0.999225         0.211648         0.836049
 H        -1.070403         2.491829        -0.222129
 H        -2.435076         1.306384        -0.437031
 H        -3.671266         2.827263         0.964505
 H        -1.266139         2.198134         3.956182
 H         0.508157         2.241182         2.068636
 H         0.283506         0.794629         3.084117
 H        -3.444790         1.048320         3.046087
 H        -1.518872        -0.784467         2.359106
 H        -2.598809        -0.629345         0.986343
