19
Iteration:  1475
 O         0.058653         0.018427         0.286995
 C        -0.748137         0.787043         1.139806
 C        -1.585695         1.755543         0.221190
 C        -2.616273         2.258189         1.209097
 O        -1.892799         3.143285         2.041800
 C        -1.594098         2.078055         3.039022
 C        -0.185656         1.506403         2.341156
 C        -2.705452         1.104208         2.338006
 C        -1.939619        -0.050270         1.731597
 H         0.930915         0.266398         0.620507
 H        -1.110528         2.561841        -0.234497
 H        -1.989646         1.062815        -0.591171
 H        -3.564612         2.636611         0.870573
 H        -1.587729         2.424506         4.086504
 H         0.421068         2.297419         2.071654
 H         0.328337         0.706725         2.836643
 H        -3.662986         0.721723         2.804758
 H        -1.899836        -0.903300         2.431195
 H        -2.447083        -0.350655         0.727761
