19
Iteration:  1927
 O         0.235411        -0.049126         0.422070
 C        -0.771181         0.648432         1.071768
 C        -1.714996         1.724862         0.161027
 C        -2.629100         2.290982         1.267115
 O        -2.072921         3.248418         2.161466
 C        -1.522650         2.097437         2.940994
 C        -0.201604         1.573177         2.077882
 C        -2.605926         1.166546         2.373077
 C        -1.864721        -0.111097         1.823198
 H        -0.196416        -0.390022        -0.384101
 H        -1.088493         2.602608        -0.283595
 H        -2.345648         1.208037        -0.579234
 H        -3.577818         2.704137         0.970173
 H        -1.452599         2.434183         4.016390
 H         0.506053         2.415812         1.642262
 H         0.317372         0.818634         2.774126
 H        -3.480390         1.173818         3.063953
 H        -1.512634        -0.708015         2.678032
 H        -2.469712        -0.849728         1.314469
