19
Iteration:   238
 O         0.145803        -0.079558         0.267179
 C        -0.807270         0.704928         0.996480
 C        -1.475322         1.962520         0.204353
 C        -2.591910         2.342575         1.240538
 O        -2.094960         3.199649         2.275046
 C        -1.505594         2.032366         2.917071
 C        -0.241842         1.366237         2.316916
 C        -2.674795         1.129605         2.282144
 C        -1.985386        -0.040716         1.693825
 H         0.837750        -0.154478         0.980376
 H        -0.765001         2.836434         0.027614
 H        -1.883282         1.561431        -0.658269
 H        -3.485868         2.773107         0.760543
 H        -1.438424         2.266549         3.977995
 H         0.658747         1.940607         2.026614
 H        -0.107321         0.501861         3.044492
 H        -3.536036         0.990754         2.881924
 H        -1.580602        -0.574236         2.555507
 H        -2.562394        -0.752501         1.030911
