19
Iteration:  1073charge 0 multiplicity 1
 O         0.233726         0.039201         0.387958
 C        -0.786976         0.802724         1.095948
 C        -1.742730         1.766197         0.233517
 C        -2.712952         2.297240         1.216854
 O        -1.890151         3.186908         2.049437
 C        -1.500104         2.042673         2.881454
 C        -0.226171         1.354291         2.388092
 C        -2.688774         1.164114         2.380255
 C        -1.917648        -0.074138         1.727644
 H         0.331202         0.223458        -0.562567
 H        -1.338806         2.729869        -0.111483
 H        -2.052348         1.292284        -0.730691
 H        -3.565592         2.760183         0.712052
 H        -1.380526         2.363879         3.945188
 H         0.594597         2.030625         2.356184
 H         0.073924         0.631176         3.026206
 H        -3.623399         0.913600         3.014526
 H        -1.618069        -0.868675         2.385428
 H        -2.435838        -0.648873         1.010455
