19
Iteration:  2023charge 0 multiplicity 1
 O         0.214624        -0.128823         0.273294
 C        -0.771957         0.670018         1.035401
 C        -1.659250         1.615591         0.213179
 C        -2.671822         2.306933         1.303576
 O        -2.155749         3.269039         2.246081
 C        -1.448846         2.160190         2.856351
 C        -0.245917         1.584216         2.095707
 C        -2.553162         1.212894         2.393565
 C        -1.930069        -0.074191         1.796896
 H         1.018603        -0.121893         0.815973
 H        -1.203146         2.493676        -0.257428
 H        -2.333559         1.033838        -0.439755
 H        -3.599941         2.648482         0.880207
 H        -1.172767         2.352839         3.950874
 H         0.368502         2.319312         1.607384
 H         0.151950         1.115951         2.920653
 H        -3.410721         0.974767         3.172526
 H        -1.466973        -0.596875         2.651590
 H        -2.354938        -0.889505         1.171860
