19
Iteration:  2241charge 0 multiplicity 1
 O         0.195338         0.112794         0.352551
 C        -0.812386         0.757954         1.024847
 C        -1.729745         1.572930         0.137013
 C        -2.676044         2.265992         1.264899
 O        -2.025062         3.256134         2.128200
 C        -1.419105         2.143588         2.891554
 C        -0.267834         1.477075         2.185291
 C        -2.555414         1.155244         2.488319
 C        -1.893942        -0.098975         1.806539
 H         0.111471        -0.845448         0.481473
 H        -1.251127         2.353790        -0.404276
 H        -2.271649         0.840051        -0.567536
 H        -3.709432         2.583009         0.980576
 H        -1.205531         2.513934         3.922708
 H         0.465773         2.175036         1.886598
 H         0.316564         0.817051         2.882827
 H        -3.512679         1.056461         3.134659
 H        -1.185299        -0.765607         2.355491
 H        -2.654185        -0.622924         1.177704
