19
Iteration:   300charge 0 multiplicity 1
 O         0.213358         0.178537         0.245172
 C        -0.829680         0.732770         1.044187
 C        -1.602828         1.684218         0.245746
 C        -2.524658         2.339505         1.221067
 O        -1.901519         3.246312         2.235289
 C        -1.609906         1.953593         2.985833
 C        -0.276541         1.354603         2.362141
 C        -2.686488         1.199383         2.220862
 C        -1.998069        -0.065672         1.702874
 H         0.322121        -0.784547         0.435015
 H        -0.918048         2.516532        -0.135053
 H        -2.101189         1.282612        -0.746225
 H        -3.383577         2.782710         0.660454
 H        -1.801087         1.893706         4.077148
 H         0.394462         2.196488         2.116438
 H         0.124939         0.586072         3.106065
 H        -3.539822         1.153159         2.877448
 H        -1.679999        -0.687886         2.581932
 H        -2.491152        -0.822595         1.069288
