19
Iteration:   209charge 0 multiplicity 1
 O         0.017859        -0.138925         0.240557
 C        -0.728619         0.661310         1.151480
 C        -1.434575         1.865060         0.241423
 C        -2.558566         2.332598         1.216263
 O        -2.009914         3.248845         2.317415
 C        -1.624493         1.922489         2.952529
 C        -0.240643         1.567091         2.346731
 C        -2.624747         1.157574         2.215121
 C        -1.960850        -0.049456         1.654510
 H         0.793672         0.463191         0.066798
 H        -0.782977         2.629458        -0.162371
 H        -1.788828         1.184319        -0.627196
 H        -3.489974         2.715528         0.820191
 H        -1.760421         1.986862         4.045036
 H         0.251038         2.357594         1.790767
 H         0.300936         1.029853         3.093085
 H        -3.612991         0.989365         2.755150
 H        -1.918341        -0.932760         2.319630
 H        -2.479923        -0.385708         0.766525
