19
Iteration:  2944
 O         0.198895        -0.163170         0.305724
 C        -0.780388         0.757575         0.968692
 C        -1.670218         1.894269         0.147524
 C        -2.679196         2.296992         1.258392
 O        -1.988007         3.261893         2.270158
 C        -1.543217         2.080470         2.955492
 C        -0.285221         1.517426         2.196923
 C        -2.575730         1.126930         2.385997
 C        -1.881355        -0.102335         1.744804
 H        -0.165616        -1.069514         0.459537
 H        -1.133964         2.798949        -0.058681
 H        -2.069263         1.382933        -0.775546
 H        -3.676945         2.721886         0.926074
 H        -1.228543         2.338797         4.023935
 H         0.499208         2.309751         1.930532
 H         0.120316         0.768645         2.913121
 H        -3.405625         0.951803         3.092222
 H        -1.339422        -0.624888         2.538367
 H        -2.415742        -0.729216         0.966459
