19
Iteration:  4191charge 0 multiplicity 1
 O         0.167652         0.003548         0.318650
 C        -0.843794         0.662400         0.991292
 C        -1.697077         1.785434         0.213086
 C        -2.604370         2.415346         1.324022
 O        -1.890847         3.217926         2.228262
 C        -1.559049         1.998744         3.024052
 C        -0.282636         1.414684         2.236402
 C        -2.597577         1.185051         2.338330
 C        -1.939155        -0.123116         1.637312
 H         0.980106         0.484216         0.096283
 H        -1.129714         2.479358        -0.345812
 H        -2.438216         1.304417        -0.506099
 H        -3.580021         2.845261         1.098592
 H        -1.375845         2.082377         4.090366
 H         0.424274         2.272031         1.763412
 H         0.257850         0.688984         2.950376
 H        -3.605256         1.011689         2.836472
 H        -1.447302        -0.879837         2.283818
 H        -2.656892        -0.613924         0.937348
