19
Iteration:  4418charge 0 multiplicity 1
 O         0.224544         0.078997         0.272030
 C        -0.811877         0.679798         1.022517
 C        -1.722299         1.733484         0.255704
 C        -2.698235         2.373467         1.335850
 O        -1.888404         3.200074         2.209613
 C        -1.500120         2.039528         2.863204
 C        -0.260495         1.394986         2.208906
 C        -2.602224         1.134161         2.381755
 C        -1.990889        -0.082450         1.669569
 H         1.031189         0.169811         0.787913
 H        -1.034047         2.394395        -0.198386
 H        -2.470165         1.304015        -0.484876
 H        -3.726940         2.751043         0.986235
 H        -1.376546         2.236144         3.890309
 H         0.383322         2.167827         2.181789
 H         0.214297         0.819251         2.970939
 H        -3.459424         1.089185         3.111257
 H        -1.600987        -0.829095         2.367597
 H        -2.729015        -0.560952         0.949643
