19
Iteration:  1758charge 0 multiplicity 1
 O         0.124702         0.017015         0.264384
 C        -0.851408         0.718720         1.097753
 C        -1.541224         1.737097         0.227308
 C        -2.567538         2.197684         1.263301
 O        -2.034476         3.190681         2.138663
 C        -1.542609         2.116381         2.944065
 C        -0.238067         1.572970         2.265845
 C        -2.605207         1.152587         2.353810
 C        -1.904944        -0.068206         1.795907
 H        -0.218596        -0.840018        -0.018270
 H        -0.882678         2.465372        -0.239268
 H        -1.918756         1.013785        -0.610125
 H        -3.516202         2.450470         0.752015
 H        -1.532967         2.463589         3.949699
 H         0.079743         2.445141         1.799515
 H         0.554820         1.044769         2.820750
 H        -3.383406         1.081612         3.055183
 H        -1.479910        -0.615209         2.577085
 H        -2.560458        -0.673084         1.215266
