19
Iteration:  3256
 O         0.116034         0.121924         0.232099
 C        -0.833669         0.781334         1.078295
 C        -1.776153         1.691343         0.191666
 C        -2.665809         2.279018         1.274643
 O        -1.916342         3.232298         2.071175
 C        -1.510102         2.020527         2.917682
 C        -0.133494         1.364460         2.417044
 C        -2.613115         1.161238         2.360291
 C        -1.941079        -0.040983         1.750387
 H         0.728012        -0.419655         0.734952
 H        -1.227853         2.525411        -0.435245
 H        -2.293504         0.931944        -0.454519
 H        -3.563676         2.754643         0.951123
 H        -1.393101         2.321552         3.922032
 H         0.701303         2.015485         2.227406
 H         0.458037         0.560512         2.736293
 H        -3.345807         1.202637         3.138106
 H        -1.492429        -0.728774         2.514961
 H        -2.516585        -0.623938         1.049804
