19
Iteration:  3874charge 0 multiplicity 1
 O         0.102678        -0.057591         0.287569
 C        -0.876269         0.795712         1.028808
 C        -1.664508         1.809125         0.205580
 C        -2.687404         2.262483         1.237263
 O        -1.994709         3.166210         2.186247
 C        -1.419421         1.962156         3.019924
 C        -0.156175         1.440124         2.267776
 C        -2.614796         1.167166         2.351067
 C        -1.964039         0.014037         1.698055
 H         1.004313         0.271850         0.439400
 H        -1.089970         2.635649        -0.070464
 H        -1.990062         1.244330        -0.706342
 H        -3.513174         2.834423         0.898245
 H        -1.343424         2.239526         4.088324
 H         0.538927         2.247195         1.881220
 H         0.489268         0.853092         2.855041
 H        -3.417258         1.137438         3.070735
 H        -1.646696        -0.820754         2.446559
 H        -2.603631        -0.514503         0.938298
