19
Iteration:  4008charge 0 multiplicity 1
 O         0.051226         0.043428         0.181136
 C        -0.811983         0.693096         1.064505
 C        -1.610456         1.829385         0.233642
 C        -2.592295         2.280239         1.289869
 O        -1.919911         3.201455         2.216215
 C        -1.483501         2.013750         2.976460
 C        -0.260915         1.542341         2.309759
 C        -2.620137         1.122744         2.328243
 C        -1.946706        -0.105293         1.676763
 H         0.401668        -0.800052         0.552382
 H        -0.912070         2.660984        -0.103640
 H        -2.023462         1.355051        -0.652831
 H        -3.441376         2.876107         0.891190
 H        -1.267187         2.207975         4.100112
 H         0.444589         2.296381         2.042364
 H         0.173796         0.797360         3.021009
 H        -3.556809         1.005736         2.942704
 H        -1.873828        -0.892158         2.497536
 H        -2.562315        -0.653877         0.920666
