19
Iteration:  1103charge 0 multiplicity 1
 O         0.231062         0.046648         0.374527
 C        -0.806556         0.711071         1.097777
 C        -1.572449         1.724741         0.168301
 C        -2.533985         2.223641         1.224364
 O        -2.009682         3.247074         2.212825
 C        -1.503462         2.066785         2.954024
 C        -0.253384         1.534466         2.245274
 C        -2.633554         1.139082         2.355787
 C        -2.077892        -0.113828         1.714441
 H         0.085187        -0.455653        -0.451514
 H        -1.040614         2.616332        -0.114518
 H        -2.011613         1.178245        -0.645301
 H        -3.468330         2.553459         0.803581
 H        -1.274599         2.260995         3.985986
 H         0.393309         2.415149         2.002584
 H         0.305936         0.915664         3.107684
 H        -3.634656         1.093440         2.734727
 H        -1.898932        -1.013967         2.331034
 H        -2.843471        -0.409320         0.862532
