19
Iteration:   798
 O         0.194513         0.045996         0.400017
 C        -0.898256         0.735602         1.066947
 C        -1.572239         1.697979         0.136837
 C        -2.645754         2.197682         1.224037
 O        -1.911332         3.214939         2.187691
 C        -1.519634         2.122703         2.979354
 C        -0.247899         1.391237         2.371938
 C        -2.604259         1.208046         2.396704
 C        -2.020062        -0.071917         1.541017
 H         0.727105         0.672100        -0.104445
 H        -1.095817         2.498143        -0.395722
 H        -2.163042         1.038741        -0.346964
 H        -3.589350         2.567234         0.821499
 H        -1.493722         2.321991         4.075606
 H         0.535646         2.129340         2.000100
 H         0.182250         0.671794         3.118629
 H        -3.457625         1.024029         3.034063
 H        -1.766733        -0.931751         2.141940
 H        -2.736280        -0.261690         0.780418
