19
Iteration:  2386
 O         0.089464        -0.105391         0.222043
 C        -0.728740         0.792714         1.063284
 C        -1.673595         1.720796         0.270123
 C        -2.735755         2.203685         1.232208
 O        -1.992839         3.251266         2.161700
 C        -1.472116         2.109752         2.908288
 C        -0.171262         1.493311         2.291278
 C        -2.640711         1.153838         2.339746
 C        -1.931711        -0.011037         1.773595
 H         0.982775        -0.166876         0.600845
 H        -1.316253         2.591442        -0.419054
 H        -2.238511         1.025712        -0.374476
 H        -3.630304         2.512341         0.781107
 H        -1.192531         2.448974         3.990859
 H         0.656532         2.258848         2.138864
 H         0.273820         0.949109         3.099167
 H        -3.440643         1.003297         2.971281
 H        -1.454985        -0.573137         2.639035
 H        -2.373821        -0.658873         1.008421
