19
Iteration:   587
 O         0.128826        -0.023996         0.297012
 C        -0.757964         0.733124         1.045845
 C        -1.530715         1.780260         0.231454
 C        -2.644840         2.344226         1.226431
 O        -1.955546         3.236459         2.308742
 C        -1.597460         2.015202         2.962164
 C        -0.203677         1.452811         2.348908
 C        -2.675318         1.159934         2.193664
 C        -1.954590        -0.043850         1.609658
 H         0.423685        -0.809793         0.805479
 H        -0.947436         2.704542        -0.122211
 H        -2.044409         1.171463        -0.523790
 H        -3.517372         2.935413         0.944495
 H        -1.677971         1.906980         4.040920
 H         0.430205         2.303337         2.072811
 H         0.350561         0.701586         3.052051
 H        -3.605103         0.970969         2.820023
 H        -1.698820        -0.902152         2.211980
 H        -2.536829        -0.394054         0.713174
