19
Iteration:  2063charge 0 multiplicity 1
 O         0.039709         0.032294         0.278596
 C        -0.827483         0.819615         1.082516
 C        -1.664667         1.709126         0.174517
 C        -2.691547         2.096281         1.287331
 O        -1.994719         3.093096         2.029573
 C        -1.417022         2.126719         2.911618
 C        -0.209857         1.651184         2.261972
 C        -2.590807         1.140736         2.447436
 C        -1.850672         0.005682         1.816380
 H         0.335702        -0.729432         0.816367
 H        -1.158537         2.498274        -0.347404
 H        -1.955388         1.001386        -0.622181
 H        -3.675864         2.457654         0.870572
 H        -1.355949         2.406953         3.923380
 H         0.504349         2.350724         1.894628
 H         0.392777         0.820962         2.926525
 H        -3.395396         1.182767         3.173242
 H        -1.324187        -0.638416         2.550691
 H        -2.495287        -0.663043         1.219529
