19
Iteration:  3649
 O         0.159989         0.187172         0.236519
 C        -0.819412         0.787254         1.030345
 C        -1.767915         1.733284         0.141294
 C        -2.561148         2.196340         1.300254
 O        -1.815029         3.082544         2.062491
 C        -1.489457         2.003615         3.010003
 C        -0.236208         1.517969         2.303528
 C        -2.618697         1.218606         2.376976
 C        -2.070147        -0.092283         1.801229
 H         0.517209        -0.514113         0.834550
 H        -1.054518         2.541734        -0.387154
 H        -2.165450         1.069481        -0.682329
 H        -3.612427         2.537388         1.082325
 H        -1.324113         2.139449         4.132328
 H         0.445588         2.360023         2.154540
 H         0.162706         0.685105         2.911661
 H        -3.505434         1.132362         2.994016
 H        -1.868014        -0.823762         2.668901
 H        -2.779794        -0.531568         1.058077
