19
Iteration:   642
 O         0.189541        -0.050621         0.331582
 C        -0.768375         0.720494         1.076079
 C        -1.504792         1.813809         0.278076
 C        -2.627163         2.335179         1.230048
 O        -2.049778         3.239203         2.188656
 C        -1.459587         2.028316         3.000786
 C        -0.195666         1.423729         2.395388
 C        -2.733987         1.135967         2.230402
 C        -2.002023        -0.071556         1.605960
 H        -0.249091        -0.206524        -0.553670
 H        -0.796479         2.624792        -0.224300
 H        -2.114538         1.506314        -0.572013
 H        -3.566580         2.763668         0.905690
 H        -1.346100         2.102240         4.081441
 H         0.442447         2.317530         2.195225
 H         0.274065         0.714824         3.202880
 H        -3.639542         1.051430         2.906106
 H        -1.654454        -0.746377         2.367873
 H        -2.510720        -0.495988         0.696417
