19
Iteration:   152
 O         0.357367         0.180604         0.344353
 C        -0.862192         0.649325         1.035316
 C        -1.583381         1.809684         0.259551
 C        -2.597485         2.375438         1.238917
 O        -1.925698         3.221438         2.213800
 C        -1.508706         2.028337         2.934825
 C        -0.276368         1.348578         2.400029
 C        -2.682549         1.178186         2.275726
 C        -2.164414        -0.209092         1.601980
 H         0.291057        -0.622190        -0.161264
 H        -0.814753         2.607395        -0.066832
 H        -1.987567         1.436479        -0.705308
 H        -3.459022         2.858191         0.820375
 H        -1.555832         2.306449         3.973411
 H         0.703143         1.799664         2.253214
 H        -0.030497         0.594117         3.175279
 H        -3.576450         1.248814         2.842672
 H        -1.876895        -1.010552         2.280586
 H        -2.917843        -0.526239         0.830499
