19
Iteration:   297charge 0 multiplicity 1
 O         0.220405         0.197085         0.239569
 C        -0.820912         0.725268         1.057577
 C        -1.618173         1.668790         0.237295
 C        -2.527946         2.354135         1.192498
 O        -1.888379         3.223190         2.242049
 C        -1.619998         1.926171         2.983098
 C        -0.256631         1.378789         2.377965
 C        -2.689183         1.209061         2.223816
 C        -2.012705        -0.073943         1.703288
 H         0.257821        -0.765578         0.425847
 H        -1.007325         2.444952        -0.156638
 H        -2.097489         1.153405        -0.690519
 H        -3.393422         2.799037         0.690305
 H        -1.740502         1.965062         4.111414
 H         0.469330         2.220868         2.190876
 H         0.290640         0.667547         3.096003
 H        -3.634809         1.253996         2.895192
 H        -1.849452        -0.732002         2.601639
 H        -2.481500        -0.697713         0.945528
