19
Iteration:   118
 O         0.085848         0.010743         0.220743
 C        -0.781046         0.768329         1.104235
 C        -1.476596         1.846210         0.195470
 C        -2.562561         2.361651         1.182652
 O        -1.912114         3.117959         2.256832
 C        -1.607512         1.917043         2.960309
 C        -0.242817         1.493002         2.491102
 C        -2.687519         1.172968         2.211453
 C        -2.002736        -0.047112         1.615494
 H         0.509142        -0.668475         0.749380
 H        -0.865199         2.772506        -0.154382
 H        -1.907289         1.291400        -0.630455
 H        -3.439286         2.884885         0.793361
 H        -1.699657         1.923458         4.047402
 H         0.399615         2.383189         2.371379
 H         0.085503         0.718865         3.231879
 H        -3.611078         1.120021         2.741772
 H        -1.677895        -0.797207         2.349023
 H        -2.669560        -0.549507         0.851047
