19
Iteration:  3177
 O         0.005976        -0.142204         0.211250
 C        -0.812022         0.740799         0.997758
 C        -1.559752         1.800970         0.182720
 C        -2.633777         2.307575         1.299700
 O        -2.078179         3.308184         2.193588
 C        -1.548878         2.067693         2.963235
 C        -0.198260         1.546364         2.283900
 C        -2.556993         1.098158         2.394211
 C        -1.805476        -0.077449         1.758521
 H         0.573031        -0.532210         0.882746
 H        -0.939915         2.584215        -0.195832
 H        -2.218430         1.279174        -0.683000
 H        -3.493574         2.690790         0.815818
 H        -1.255330         2.222590         4.009041
 H         0.518473         2.330780         1.858348
 H         0.231604         0.761349         2.930869
 H        -3.551340         0.876335         2.914693
 H        -1.289314        -0.761286         2.474140
 H        -2.473986        -0.630886         1.076227
