19
Iteration:  3523
 O         0.134217         0.211976         0.260506
 C        -0.850119         0.726711         1.033784
 C        -1.689129         1.689894         0.181130
 C        -2.626749         2.249560         1.254555
 O        -1.863993         3.195014         2.133698
 C        -1.441168         2.084007         2.944896
 C        -0.238761         1.406256         2.303750
 C        -2.636650         1.142907         2.390320
 C        -2.019314        -0.113332         1.759259
 H         0.546083        -0.563443         0.746356
 H        -1.197839         2.472725        -0.452921
 H        -2.282481         1.156865        -0.645394
 H        -3.515305         2.815730         0.961038
 H        -1.410925         2.322635         4.024251
 H         0.624986         2.044477         2.175438
 H         0.105599         0.650993         3.013718
 H        -3.501478         1.179692         3.077960
 H        -1.499652        -0.789460         2.421740
 H        -2.594919        -0.742748         1.076863
