19
Iteration:  4230
 O        -0.069574        -0.033549         0.181476
 C        -0.725184         0.698435         1.137500
 C        -1.546078         1.923796         0.280465
 C        -2.657257         2.274530         1.230747
 O        -2.099746         3.143072         2.239684
 C        -1.485684         2.010842         2.941794
 C        -0.092104         1.464076         2.247303
 C        -2.592530         1.166018         2.340463
 C        -1.913374        -0.051464         1.671526
 H         0.731168        -0.349494         0.661766
 H        -0.793077         2.714991        -0.003410
 H        -1.866947         1.371384        -0.600607
 H        -3.579636         2.749461         0.767755
 H        -1.559565         2.213708         4.029159
 H         0.485885         2.254456         2.038538
 H         0.503787         0.818921         2.829376
 H        -3.330171         1.131133         3.102446
 H        -1.687921        -0.701783         2.523027
 H        -2.487478        -0.511049         0.836365
