19
Iteration:   315
 O         0.179509         0.065227         0.254014
 C        -0.844491         0.679746         1.004840
 C        -1.478501         1.916577         0.221002
 C        -2.592027         2.348119         1.244108
 O        -1.968319         3.220956         2.227822
 C        -1.567756         2.037371         2.938391
 C        -0.357578         1.372258         2.328076
 C        -2.686245         1.105283         2.290700
 C        -1.928059        -0.117490         1.712657
 H         0.451642        -0.745917         0.747967
 H        -0.742694         2.697926        -0.066458
 H        -1.959247         1.479159        -0.593292
 H        -3.527753         2.800975         0.911850
 H        -1.369653         2.362200         3.964280
 H         0.580123         1.909536         2.297397
 H         0.075359         0.608797         2.946226
 H        -3.703765         0.958161         2.658212
 H        -1.516985        -0.711514         2.557599
 H        -2.638704        -0.751499         1.108544
