19
Iteration:  1281charge 0 multiplicity 1
 O         0.223038        -0.098264         0.391187
 C        -0.824258         0.643040         1.015605
 C        -1.510898         1.895493         0.158884
 C        -2.575916         2.280965         1.194037
 O        -2.155750         3.271594         2.221816
 C        -1.465968         2.121003         2.908869
 C        -0.334930         1.417670         2.256510
 C        -2.603706         1.123147         2.397679
 C        -1.932472        -0.052981         1.775203
 H         0.161427        -0.052122        -0.573388
 H        -0.791231         2.632644        -0.111224
 H        -1.854877         1.759110        -0.778057
 H        -3.517393         2.524161         0.701196
 H        -1.586517         2.316528         3.964533
 H         0.467611         2.145220         1.941743
 H         0.153078         0.602133         2.989333
 H        -3.536051         0.951508         3.067333
 H        -1.499646        -0.771463         2.492187
 H        -2.524678        -0.738946         1.149684
