19
Iteration:  4763charge 0 multiplicity 1
 O         0.084434        -0.174278         0.277941
 C        -0.801053         0.772814         1.004109
 C        -1.571415         1.847810         0.245071
 C        -2.600452         2.295900         1.256334
 O        -2.061104         3.192773         2.331235
 C        -1.498914         2.054940         2.968367
 C        -0.222112         1.509819         2.233555
 C        -2.631925         1.144153         2.300846
 C        -1.876827        -0.060651         1.709118
 H         0.403668         0.253348        -0.541755
 H        -0.977472         2.613787        -0.202908
 H        -2.216214         1.490629        -0.594576
 H        -3.469750         2.672527         0.815682
 H        -1.269978         2.260476         4.053072
 H         0.389290         2.456503         2.010515
 H         0.321526         0.672129         2.752349
 H        -3.551192         1.138584         2.952988
 H        -1.593668        -0.706847         2.536103
 H        -2.408305        -0.650531         0.996156
