19
Iteration:  1652charge 0 multiplicity 1
 O         0.001177        -0.181489         0.357076
 C        -0.745969         0.789990         1.052177
 C        -1.612376         1.847850         0.155611
 C        -2.686243         2.314146         1.199158
 O        -2.081622         3.185582         2.195119
 C        -1.530859         2.122829         2.898220
 C        -0.229797         1.515743         2.289551
 C        -2.564233         1.084024         2.340110
 C        -1.752532        -0.036612         1.793994
 H         0.806921         0.243239         0.018761
 H        -1.019598         2.474613        -0.451598
 H        -2.115954         1.137397        -0.503646
 H        -3.598090         2.680324         0.813982
 H        -1.285777         2.437688         3.912080
 H         0.619722         2.213141         2.218726
 H         0.100604         0.870768         3.125647
 H        -3.555166         0.938322         2.731125
 H        -1.248139        -0.696855         2.581781
 H        -2.390851        -0.741513         1.099140
