19
Iteration:  4663charge 0 multiplicity 1
 O         0.136115         0.052826         0.123075
 C        -0.734711         0.696418         1.083539
 C        -1.598216         1.749957         0.263722
 C        -2.693654         2.293385         1.247711
 O        -1.919200         3.223760         2.220928
 C        -1.560652         2.005119         2.950269
 C        -0.182448         1.511067         2.252747
 C        -2.636784         1.172230         2.425412
 C        -2.011673        -0.105051         1.787894
 H         0.317655        -0.887290         0.200668
 H        -1.036401         2.739529        -0.047019
 H        -2.086151         1.441900        -0.669184
 H        -3.500038         2.755037         0.764347
 H        -1.581043         2.159077         4.081433
 H         0.211566         2.514092         1.810446
 H         0.327642         0.826519         2.991308
 H        -3.564555         1.000984         2.936729
 H        -1.544970        -0.853848         2.430107
 H        -2.421449        -0.712520         0.985890
