19
Iteration:  2610charge 0 multiplicity 1
 O         0.224339         0.044475         0.195806
 C        -0.770239         0.758489         1.080806
 C        -1.629556         1.726437         0.298455
 C        -2.679306         2.313613         1.252646
 O        -1.857401         3.179308         2.125436
 C        -1.530857         2.036324         2.974301
 C        -0.243991         1.422928         2.378872
 C        -2.697203         1.159550         2.374754
 C        -1.985892         0.059483         1.686586
 H        -0.119113        -0.882180         0.106543
 H        -1.121474         2.333366        -0.394843
 H        -2.185595         1.008019        -0.346340
 H        -3.604956         2.593862         0.625045
 H        -1.379187         2.291093         3.982937
 H         0.418802         2.225152         2.129868
 H         0.073382         0.790625         3.107037
 H        -3.558835         0.811146         2.993001
 H        -1.737827        -0.792705         2.324927
 H        -2.627423        -0.388246         0.899282
