19
Iteration:  3463charge 0 multiplicity 1
 O         0.068841        -0.066330         0.277783
 C        -0.829121         0.641769         0.991256
 C        -1.575343         1.809331         0.176385
 C        -2.586281         2.374257         1.248746
 O        -2.122801         3.245741         2.280671
 C        -1.474221         2.073458         2.980990
 C        -0.219618         1.460097         2.174260
 C        -2.536788         1.167532         2.318657
 C        -1.919999        -0.050538         1.775371
 H         0.739104        -0.589557         0.784731
 H        -0.787793         2.493386        -0.169548
 H        -2.174065         1.284920        -0.515064
 H        -3.550244         2.755092         0.855029
 H        -1.354885         2.041590         4.070507
 H         0.376671         2.333687         1.751252
 H         0.254337         0.757931         2.997755
 H        -3.427168         0.935762         2.902901
 H        -1.393885        -0.763868         2.523187
 H        -2.558083        -0.543527         0.998474
