19
Iteration:  1097charge 0 multiplicity 1
 O         0.218403         0.076016         0.395362
 C        -0.852945         0.742175         1.088144
 C        -1.542057         1.690983         0.179059
 C        -2.589559         2.237095         1.296685
 O        -1.972800         3.204801         2.148034
 C        -1.483543         2.085647         2.951690
 C        -0.260989         1.508418         2.314501
 C        -2.584589         1.146135         2.352939
 C        -2.072101        -0.071284         1.668769
 H         0.027539        -0.163614        -0.523807
 H        -0.990363         2.499516        -0.404243
 H        -2.031901         1.104281        -0.662195
 H        -3.620078         2.334443         0.812732
 H        -1.449144         2.309523         4.063661
 H         0.524965         2.179769         1.971471
 H         0.192950         0.922977         3.046494
 H        -3.653359         0.966885         2.748839
 H        -1.909115        -1.036824         2.161101
 H        -2.810157        -0.391826         1.006353
