19
Iteration:  2330charge 0 multiplicity 1
 O         0.267456         0.055267         0.339408
 C        -0.779148         0.706929         1.071768
 C        -1.682293         1.614490         0.278601
 C        -2.682056         2.260765         1.316623
 O        -2.003543         3.211088         2.096540
 C        -1.518421         2.080593         2.892612
 C        -0.176338         1.505420         2.151851
 C        -2.619653         1.177857         2.422144
 C        -1.987221        -0.011955         1.791611
 H        -0.156717        -0.495895        -0.341038
 H        -1.048528         2.443211        -0.193883
 H        -2.322902         1.123066        -0.496253
 H        -3.601078         2.528235         0.876320
 H        -1.326189         2.466965         3.965550
 H         0.459903         2.335957         1.776471
 H         0.267182         0.829745         2.885076
 H        -3.429445         1.108764         3.093183
 H        -1.649022        -0.805854         2.535092
 H        -2.495321        -0.519089         0.950553
