19
Iteration:   393
 O         0.184928         0.038867         0.344999
 C        -0.832000         0.748664         1.102111
 C        -1.541345         1.873824         0.154008
 C        -2.581182         2.364046         1.236684
 O        -1.915958         3.174163         2.222883
 C        -1.570789         1.942348         2.978511
 C        -0.347668         1.274650         2.301256
 C        -2.724082         1.162773         2.195689
 C        -1.957863        -0.034375         1.749846
 H         0.918516         0.519624        -0.072680
 H        -0.804385         2.630757        -0.156563
 H        -2.008158         1.415333        -0.681080
 H        -3.484580         2.903617         0.949487
 H        -1.509155         2.107339         4.063997
 H         0.349172         2.164515         2.179422
 H         0.219502         0.468024         2.823967
 H        -3.772231         1.093391         2.680806
 H        -1.528393        -0.665696         2.575986
 H        -2.454302        -0.749504         1.061337
