19
Iteration:  1320
 O         0.212382         0.108884         0.397532
 C        -0.762255         0.795763         1.185509
 C        -1.651514         1.704885         0.192431
 C        -2.613209         2.277461         1.178831
 O        -1.857575         3.137605         2.112297
 C        -1.562092         1.970216         2.968789
 C        -0.206471         1.501096         2.341277
 C        -2.748132         1.162159         2.327530
 C        -1.972001        -0.032920         1.651669
 H        -0.402047        -0.478067        -0.097685
 H        -1.056701         2.501015        -0.350027
 H        -2.359899         0.971371        -0.461825
 H        -3.508641         2.788078         0.701167
 H        -1.424733         2.062104         4.104359
 H         0.406333         2.278670         1.932181
 H         0.433480         1.065597         3.044061
 H        -3.670957         1.041383         2.890174
 H        -1.712008        -0.960690         2.245944
 H        -2.609138        -0.470012         0.813414
