19
Iteration:  2667
 O         0.258982        -0.144469         0.307128
 C        -0.778940         0.711148         1.008977
 C        -1.604315         1.833868         0.227306
 C        -2.673099         2.328140         1.307681
 O        -2.050903         3.271139         2.277457
 C        -1.504558         2.055696         2.922949
 C        -0.158288         1.482854         2.200981
 C        -2.675702         1.185342         2.320551
 C        -2.005696        -0.070473         1.708276
 H        -0.171318        -0.909191        -0.085896
 H        -0.854690         2.676843         0.020792
 H        -1.989944         1.489697        -0.702199
 H        -3.740460         2.443486         0.878962
 H        -1.430740         2.126209         4.015893
 H         0.617077         2.183757         2.007029
 H         0.399455         0.922036         3.017411
 H        -3.558071         1.264603         2.867126
 H        -1.559907        -0.773729         2.458672
 H        -2.657905        -0.484884         0.936581
