19
Iteration:  2226
 O         0.232751         0.067802         0.384378
 C        -0.845239         0.771295         1.038798
 C        -1.824831         1.692707         0.143096
 C        -2.733709         2.160684         1.259599
 O        -1.943829         3.155981         2.062619
 C        -1.438922         2.114670         2.895193
 C        -0.171248         1.542414         2.252071
 C        -2.609014         1.188388         2.459036
 C        -1.837804        -0.042211         1.833204
 H        -0.241911        -0.619446        -0.134301
 H        -1.345256         2.426917        -0.562971
 H        -2.421521         0.972074        -0.559162
 H        -3.704918         2.620062         0.870805
 H        -1.317305         2.407841         3.913379
 H         0.680803         2.232658         2.103152
 H         0.214076         0.750047         2.869239
 H        -3.456236         1.105181         3.182719
 H        -1.541654        -0.698293         2.654581
 H        -2.378838        -0.624463         1.065066
