19
Iteration:  4387charge 0 multiplicity 1
 O         0.001732        -0.077471         0.273262
 C        -0.766946         0.799036         0.990135
 C        -1.604188         1.800952         0.129891
 C        -2.600497         2.303777         1.279649
 O        -1.984875         3.130185         2.275146
 C        -1.556542         1.986524         2.976832
 C        -0.155766         1.539430         2.229380
 C        -2.587191         1.121316         2.349987
 C        -1.943864        -0.022789         1.762165
 H         0.938069         0.179914         0.440587
 H        -0.926373         2.480263        -0.310095
 H        -2.336233         1.440745        -0.673680
 H        -3.636883         2.693593         1.102034
 H        -1.406497         2.202914         4.033131
 H         0.358048         2.526452         2.093499
 H         0.437775         0.951868         2.826412
 H        -3.589359         1.015725         2.866741
 H        -1.466840        -0.761293         2.427138
 H        -2.494528        -0.637348         0.928808
