19
Iteration:  4697
 O         0.076372         0.125815         0.224141
 C        -0.804308         0.781833         1.029341
 C        -1.708249         1.746906         0.201639
 C        -2.688806         2.251967         1.203020
 O        -1.905825         3.220701         2.207774
 C        -1.461518         2.055295         2.941845
 C        -0.239930         1.363589         2.312986
 C        -2.572733         1.162271         2.385661
 C        -1.956596        -0.085888         1.746780
 H         0.796019        -0.349739         0.690026
 H        -1.011710         2.440812        -0.284627
 H        -2.179984         1.143450        -0.600177
 H        -3.555533         2.713988         0.875531
 H        -1.550640         2.310961         4.040925
 H         0.681493         2.074313         2.296859
 H         0.161459         0.560530         3.016059
 H        -3.435928         0.934695         3.034046
 H        -1.472921        -0.834223         2.380690
 H        -2.407142        -0.559461         0.904285
