19
Iteration:   147charge 0 multiplicity 1
 O         0.347554         0.199608         0.306145
 C        -0.895239         0.636516         1.080062
 C        -1.538515         1.786272         0.276670
 C        -2.558263         2.365219         1.251015
 O        -1.926168         3.227596         2.184032
 C        -1.553719         2.055473         2.992335
 C        -0.238186         1.355443         2.367742
 C        -2.716030         1.188167         2.281622
 C        -2.145207        -0.214777         1.574857
 H         0.251302        -0.730111        -0.036681
 H        -0.855009         2.572025         0.027661
 H        -2.051949         1.348015        -0.586587
 H        -3.462121         2.860109         0.785725
 H        -1.551406         2.202701         4.110424
 H         0.723762         1.896532         2.168815
 H         0.009750         0.479802         3.057103
 H        -3.739350         1.184640         2.774906
 H        -1.886321        -0.998722         2.316346
 H        -2.856827        -0.425250         0.774946
