19
Iteration:  1854charge 0 multiplicity 1
 O         0.184644         0.009044         0.174975
 C        -0.738570         0.709909         1.048235
 C        -1.630051         1.644854         0.301429
 C        -2.675302         2.282499         1.268508
 O        -2.015433         3.240792         2.080538
 C        -1.530955         2.162626         2.867297
 C        -0.234609         1.441884         2.233568
 C        -2.689083         1.159371         2.385548
 C        -1.944961        -0.121613         1.953519
 H         1.059113         0.394920         0.318219
 H        -0.996629         2.538126         0.005874
 H        -2.111803         1.235811        -0.554728
 H        -3.607231         2.782164         0.828201
 H        -1.390036         2.480123         3.906851
 H         0.378494         2.310722         1.967379
 H         0.284108         0.667868         2.792858
 H        -3.495298         1.143247         3.027653
 H        -1.585060        -0.779148         2.837873
 H        -2.353583        -0.846263         1.201402
