19
Iteration:  2433
 O         0.228523        -0.105554         0.366394
 C        -0.794971         0.712449         1.011137
 C        -1.576613         1.774009         0.173475
 C        -2.694765         2.255407         1.347153
 O        -1.991557         3.207267         2.162390
 C        -1.512438         2.088203         2.916642
 C        -0.201682         1.563409         2.175128
 C        -2.696485         1.151967         2.384212
 C        -1.964307        -0.053472         1.793087
 H        -0.143210        -0.412603        -0.510166
 H        -1.037306         2.668182        -0.049867
 H        -2.107969         1.437503        -0.726499
 H        -3.650446         2.728697         0.950794
 H        -1.422094         2.242916         3.985893
 H         0.521122         2.430118         1.896837
 H         0.512981         0.922287         2.769756
 H        -3.616898         1.070743         3.080245
 H        -1.396090        -0.639198         2.540803
 H        -2.580575        -0.701351         1.121716
