19
Iteration:  3120charge 0 multiplicity 1
 O         0.148486         0.174989         0.240669
 C        -0.855314         0.695828         1.064196
 C        -1.756829         1.664281         0.245715
 C        -2.626188         2.217074         1.302983
 O        -1.833873         3.199883         2.085218
 C        -1.445149         2.120278         2.942696
 C        -0.260825         1.500446         2.348717
 C        -2.596258         1.171844         2.372475
 C        -1.966045        -0.135933         1.712389
 H         0.432051        -0.644856         0.721956
 H        -1.207423         2.332686        -0.371711
 H        -2.402591         1.100557        -0.629488
 H        -3.613943         2.623009         1.011407
 H        -1.417746         2.388987         4.047837
 H         0.461049         2.292089         1.896023
 H         0.302298         0.820433         2.963977
 H        -3.495450         1.156784         2.978763
 H        -1.726691        -0.934478         2.402514
 H        -2.705860        -0.647670         1.014637
