19
Iteration:  4824
 O         0.287245         0.155446         0.343158
 C        -0.887774         0.707685         0.999787
 C        -1.666397         1.754344         0.139798
 C        -2.654382         2.305202         1.338209
 O        -1.902050         3.198353         2.177600
 C        -1.467707         1.953356         2.920572
 C        -0.248875         1.395741         2.294754
 C        -2.647091         1.215192         2.394371
 C        -2.030434        -0.104924         1.726732
 H         0.060508        -0.312144        -0.482241
 H        -0.863039         2.565676        -0.178628
 H        -2.208044         1.391382        -0.749260
 H        -3.703029         2.759671         1.037282
 H        -1.437128         2.319892         3.951619
 H         0.407591         2.204618         2.022236
 H         0.250596         0.551270         2.774014
 H        -3.444034         1.065495         3.136278
 H        -1.769603        -0.859275         2.539197
 H        -2.643947        -0.778483         0.976855
