19
Iteration:  2970
 O         0.161565         0.115239         0.281745
 C        -0.820391         0.743933         1.087083
 C        -1.621754         1.763629         0.247176
 C        -2.629609         2.268323         1.265205
 O        -1.996079         3.206568         2.112912
 C        -1.432900         2.039825         2.942099
 C        -0.176707         1.446450         2.272719
 C        -2.616124         1.166266         2.368920
 C        -2.048015        -0.128046         1.756107
 H        -0.097825        -0.804006         0.040305
 H        -1.102850         2.534242        -0.317056
 H        -2.201843         1.112643        -0.402573
 H        -3.506787         2.604451         0.814678
 H        -1.314599         2.355166         3.946346
 H         0.583917         2.238249         1.991945
 H         0.394424         0.699707         2.955744
 H        -3.403171         1.122109         3.124686
 H        -1.773694        -0.834196         2.521609
 H        -2.504514        -0.491680         0.862800
