19
Iteration:   485
 O         0.087810        -0.229376         0.299113
 C        -0.796192         0.788962         1.034052
 C        -1.465514         1.848069         0.219049
 C        -2.512036         2.422340         1.237200
 O        -2.006980         3.184883         2.363653
 C        -1.646381         1.944074         2.965413
 C        -0.231777         1.571206         2.307256
 C        -2.729481         1.100638         2.223519
 C        -1.949817        -0.008079         1.616258
 H         1.020465         0.097178         0.265776
 H        -0.786695         2.583551        -0.111347
 H        -2.022920         1.348152        -0.587135
 H        -3.466024         2.912307         0.796672
 H        -1.640624         2.041587         4.073106
 H         0.364515         2.480231         2.033161
 H         0.619079         1.009722         2.891372
 H        -3.687448         1.033297         2.625585
 H        -1.695251        -0.833154         2.389778
 H        -2.458698        -0.692938         0.916229
