19
Iteration:  4475charge 0 multiplicity 1
 O         0.082084        -0.016301         0.145714
 C        -0.730741         0.742201         1.035578
 C        -1.655451         1.813639         0.285381
 C        -2.649068         2.333715         1.257663
 O        -1.978256         3.285578         2.229059
 C        -1.527106         2.045996         3.026644
 C        -0.154152         1.493535         2.292242
 C        -2.667477         1.086505         2.286154
 C        -1.889950        -0.145792         1.735472
 H         0.168021        -0.934040         0.494225
 H        -1.004058         2.609389        -0.131285
 H        -2.126957         1.379071        -0.636739
 H        -3.574341         2.655463         0.723908
 H        -1.436174         2.242321         4.114214
 H         0.332239         2.448181         2.098670
 H         0.342001         0.835466         3.000096
 H        -3.629668         0.930457         2.785967
 H        -1.405832        -0.708843         2.575201
 H        -2.466109        -0.914144         1.070266
