19
Iteration:  2160
 O         0.096227        -0.188291         0.299109
 C        -0.752326         0.736536         1.062670
 C        -1.685454         1.732569         0.176415
 C        -2.772156         2.215245         1.314659
 O        -2.130064         3.299284         2.128902
 C        -1.422951         2.157521         2.878337
 C        -0.151358         1.565397         2.180484
 C        -2.577994         1.147095         2.420562
 C        -1.804033        -0.049859         1.843015
 H         1.013837         0.055582         0.538170
 H        -1.255030         2.624776        -0.426385
 H        -2.391620         1.166920        -0.554849
 H        -3.786957         2.392609         0.825247
 H        -1.429151         2.353095         3.931474
 H         0.460545         2.381264         1.769447
 H         0.337763         0.983688         2.881752
 H        -3.301335         1.004199         3.184668
 H        -1.247949        -0.762723         2.450685
 H        -2.298827        -0.748738         1.161520
