19
Iteration:  1385charge 0 multiplicity 1
 O         0.142748        -0.088530         0.379797
 C        -0.769957         0.656346         1.145253
 C        -1.519130         1.799514         0.221475
 C        -2.588358         2.235184         1.217944
 O        -2.068516         3.211124         2.179668
 C        -1.518905         2.042161         2.968302
 C        -0.174737         1.608763         2.310065
 C        -2.640986         1.140874         2.319971
 C        -1.994908        -0.040499         1.618456
 H        -0.266571        -0.275485        -0.494785
 H        -1.013072         2.773638        -0.013519
 H        -1.855085         1.194925        -0.660013
 H        -3.577211         2.636512         0.753842
 H        -1.508182         2.349685         4.063220
 H         0.445503         2.398254         1.898841
 H         0.330414         1.002033         3.049123
 H        -3.605414         1.043328         2.833512
 H        -1.467471        -0.677580         2.371924
 H        -2.611944        -0.438079         0.762825
