19
Iteration:  2538
 O         0.193659        -0.219878         0.315818
 C        -0.783686         0.720726         1.049453
 C        -1.609449         1.801493         0.161004
 C        -2.616590         2.271706         1.278572
 O        -2.013752         3.250548         2.233327
 C        -1.552755         2.038230         2.951166
 C        -0.214765         1.611030         2.333872
 C        -2.556902         1.165765         2.351557
 C        -1.985782         0.014058         1.669225
 H        -0.069278        -0.230322        -0.635897
 H        -1.166676         2.661815        -0.511542
 H        -2.057216         1.068494        -0.522605
 H        -3.581737         2.565151         0.994245
 H        -1.455286         1.967745         4.093722
 H         0.369259         2.498833         2.106310
 H         0.348621         0.844869         3.021947
 H        -3.494372         1.176858         2.782193
 H        -1.558327        -0.772317         2.336928
 H        -2.795537        -0.467574         1.142344
