19
Iteration:  2107
 O         0.201951         0.132059         0.208287
 C        -0.817360         0.669169         1.070546
 C        -1.690988         1.527466         0.259596
 C        -2.700728         2.238048         1.252190
 O        -2.035077         3.216874         2.135040
 C        -1.450211         2.170913         2.870290
 C        -0.193968         1.567964         2.156908
 C        -2.576144         1.200955         2.428394
 C        -1.920697        -0.107190         1.904397
 H         0.488824        -0.725459         0.573298
 H        -1.137082         2.144284        -0.390636
 H        -2.366993         1.000857        -0.484139
 H        -3.726110         2.555789         0.866514
 H        -1.331306         2.533629         3.850926
 H         0.466737         2.349490         1.945130
 H         0.369520         0.989173         3.008182
 H        -3.533029         1.067025         3.005486
 H        -1.535603        -0.740620         2.725228
 H        -2.589174        -0.674161         1.217367
