19
Iteration:   631charge 0 multiplicity 1
 O         0.156404        -0.029624         0.357834
 C        -0.789415         0.728363         1.077189
 C        -1.459320         1.876312         0.244079
 C        -2.627610         2.295981         1.252357
 O        -2.092510         3.252908         2.233220
 C        -1.551544         2.023866         2.916354
 C        -0.175119         1.407362         2.296892
 C        -2.614448         1.146569         2.288321
 C        -2.009888        -0.053383         1.640657
 H        -0.351025        -0.573620        -0.284416
 H        -0.671625         2.685602         0.347749
 H        -1.680850         1.586937        -0.782603
 H        -3.516125         2.626158         0.724750
 H        -1.498810         2.219258         3.985773
 H         0.717192         2.020126         2.055014
 H         0.187161         0.571771         3.011217
 H        -3.558765         0.918144         2.850198
 H        -1.729045        -0.856814         2.317211
 H        -2.620398        -0.582784         0.858857
