19
Iteration:  2292charge 0 multiplicity 1
 O        -0.051454        -0.130321         0.347418
 C        -0.770168         0.763219         1.075300
 C        -1.604281         1.749398         0.199882
 C        -2.635036         2.200461         1.224768
 O        -2.092604         3.186533         2.130893
 C        -1.473672         2.118701         2.923781
 C        -0.180798         1.620343         2.195218
 C        -2.551118         1.119169         2.393228
 C        -1.819256        -0.023147         1.810610
 H         0.755088         0.378504         0.076668
 H        -0.991937         2.535132        -0.203757
 H        -2.224259         1.319071        -0.629855
 H        -3.700079         2.391102         0.844621
 H        -1.484675         2.317990         3.953336
 H         0.606685         2.344817         2.019633
 H         0.417962         0.865971         2.708563
 H        -3.421100         0.874749         3.110550
 H        -1.304887        -0.540179         2.601511
 H        -2.374178        -0.686956         1.117808
