19
Iteration:   377
 O         0.166418        -0.096358         0.342754
 C        -0.855078         0.691687         0.910798
 C        -1.537550         1.850187         0.195565
 C        -2.547577         2.375183         1.215163
 O        -1.974183         3.205732         2.340055
 C        -1.597275         1.933836         2.963865
 C        -0.237577         1.504516         2.364690
 C        -2.679295         1.173405         2.232652
 C        -1.972224        -0.077698         1.656183
 H         1.003441         0.448350         0.435420
 H        -0.860178         2.719911        -0.148343
 H        -2.078502         1.512019        -0.770303
 H        -3.447919         2.810615         0.725100
 H        -1.647648         1.927623         4.061379
 H         0.378089         2.352825         2.058272
 H         0.092337         0.603000         2.928571
 H        -3.587358         1.083424         2.745193
 H        -1.584382        -0.567053         2.549654
 H        -2.653298        -0.778170         1.150709
