19
Iteration:  3529
 O         0.155571         0.186367         0.231298
 C        -0.845148         0.733598         1.055786
 C        -1.663466         1.690428         0.149039
 C        -2.577693         2.225305         1.286960
 O        -1.905213         3.243220         2.156591
 C        -1.430394         2.011456         2.952187
 C        -0.269164         1.412802         2.287539
 C        -2.607331         1.129379         2.407188
 C        -2.009872        -0.041734         1.737933
 H         0.400018        -0.486237         0.872457
 H        -1.217578         2.440744        -0.548298
 H        -2.315961         1.112916        -0.487186
 H        -3.583884         2.558855         0.921254
 H        -1.348509         2.350698         3.987644
 H         0.572206         2.037404         1.903810
 H        -0.052740         0.575072         3.045297
 H        -3.626775         1.120038         2.815487
 H        -1.673345        -0.564529         2.717291
 H        -2.741587        -0.661013         1.165012
