19
Iteration:  4272charge 0 multiplicity 1
 O         0.229324         0.070414         0.209858
 C        -0.864700         0.780155         0.980160
 C        -1.670432         1.761108         0.204329
 C        -2.621792         2.293183         1.244104
 O        -1.951830         3.185840         2.258734
 C        -1.491826         2.046837         2.983779
 C        -0.243146         1.409972         2.303408
 C        -2.609260         1.141979         2.377187
 C        -1.989290        -0.036592         1.740583
 H         0.019334        -0.878069         0.375532
 H        -1.061044         2.685808        -0.212904
 H        -2.285058         1.362279        -0.600333
 H        -3.508638         2.749379         0.791453
 H        -1.366758         2.150890         4.116439
 H         0.493731         2.160528         1.963735
 H         0.352606         0.618253         2.830998
 H        -3.447705         0.953408         3.009367
 H        -1.500123        -0.875311         2.352936
 H        -2.674044        -0.496979         0.997888
