19
Iteration:  3470
 O         0.041196        -0.020428         0.239279
 C        -0.845587         0.684714         1.024163
 C        -1.573927         1.769308         0.170758
 C        -2.586799         2.347436         1.180779
 O        -2.090939         3.216226         2.254533
 C        -1.473680         2.039711         3.012009
 C        -0.219169         1.483554         2.207653
 C        -2.524469         1.135335         2.353636
 C        -1.918792        -0.044920         1.789023
 H         0.661764        -0.413785         0.914680
 H        -0.829045         2.384250        -0.240089
 H        -2.191529         1.266324        -0.667993
 H        -3.501667         2.852069         0.932721
 H        -1.274541         2.193245         4.123315
 H         0.597477         2.181584         2.031879
 H         0.205480         0.889976         2.950102
 H        -3.484437         1.116165         2.879173
 H        -1.608627        -0.812000         2.429224
 H        -2.505297        -0.488403         1.010103
