19
Iteration:  1524
 O         0.226347        -0.039305         0.312913
 C        -0.804218         0.656608         1.024570
 C        -1.493585         1.705483         0.246380
 C        -2.555752         2.307202         1.279445
 O        -2.144416         3.255433         2.233959
 C        -1.539470         2.081092         2.894835
 C        -0.231917         1.558844         2.194986
 C        -2.669180         1.128730         2.426655
 C        -1.985314        -0.034412         1.681674
 H         0.234620        -0.963045         0.665176
 H        -0.767940         2.552813        -0.187540
 H        -2.074228         1.317274        -0.600860
 H        -3.488094         2.602231         0.718892
 H        -1.337848         2.430050         3.929604
 H         0.432676         2.431451         1.815904
 H         0.348300         0.848894         2.825068
 H        -3.586084         1.069252         2.996720
 H        -1.450563        -0.864353         2.183261
 H        -2.698712        -0.439742         1.049251
