19
Iteration:  3464
 O         0.062291        -0.056546         0.275559
 C        -0.831443         0.640040         0.990048
 C        -1.579692         1.801595         0.173833
 C        -2.585372         2.373073         1.233087
 O        -2.121443         3.240560         2.274175
 C        -1.473783         2.069174         2.996470
 C        -0.220267         1.461320         2.174759
 C        -2.527354         1.157884         2.320999
 C        -1.921332        -0.042381         1.784017
 H         0.719631        -0.555526         0.794372
 H        -0.727945         2.510671        -0.188074
 H        -2.179604         1.273164        -0.512207
 H        -3.566426         2.798646         0.880180
 H        -1.334456         2.045462         4.065018
 H         0.409782         2.321552         1.788695
 H         0.239546         0.769803         3.028488
 H        -3.432560         0.958869         2.899506
 H        -1.405521        -0.787893         2.522850
 H        -2.541392        -0.521256         0.968870
