19
Iteration:  4907charge 0 multiplicity 1
 O         0.164306        -0.104680         0.239314
 C        -0.805742         0.707892         1.065735
 C        -1.575384         1.828005         0.333144
 C        -2.675198         2.318960         1.283684
 O        -2.132555         3.313312         2.258709
 C        -1.424642         2.019446         2.877658
 C        -0.207701         1.483311         2.278035
 C        -2.560113         1.163598         2.344310
 C        -1.944229        -0.133396         1.684117
 H        -0.346497        -0.175195        -0.597527
 H        -0.838503         2.561504         0.216482
 H        -1.908648         1.604015        -0.702244
 H        -3.590435         2.627135         0.871835
 H        -1.399986         2.332872         3.923799
 H         0.638773         2.038411         1.844970
 H         0.322009         0.652273         2.815281
 H        -3.492309         0.993220         2.977259
 H        -1.411322        -0.727494         2.394703
 H        -2.594308        -0.615489         1.018559
