19
Iteration:  3032
 O         0.101790        -0.111187         0.399553
 C        -0.811341         0.755065         1.014097
 C        -1.717138         1.767210         0.162732
 C        -2.669385         2.301157         1.282566
 O        -2.025253         3.221881         2.225522
 C        -1.413249         2.067151         2.910198
 C        -0.139856         1.511359         2.267609
 C        -2.599581         1.141986         2.323440
 C        -1.905090        -0.035232         1.713787
 H         0.586418         0.200858        -0.397817
 H        -1.111449         2.514101        -0.281094
 H        -2.261780         1.221154        -0.683814
 H        -3.631443         2.681159         0.932774
 H        -1.417112         2.195232         4.027071
 H         0.611990         2.276845         2.031673
 H         0.097515         0.675322         2.832952
 H        -3.297021         1.017200         3.107386
 H        -1.678520        -0.745364         2.505479
 H        -2.484411        -0.631045         0.962694
