19
Iteration:  2398charge 0 multiplicity 1
 O         0.036182        -0.117844         0.269650
 C        -0.775192         0.721299         1.098679
 C        -1.652576         1.712747         0.177600
 C        -2.670198         2.298483         1.267854
 O        -2.103697         3.228181         2.159596
 C        -1.484623         2.133863         2.886315
 C        -0.059210         1.535399         2.305477
 C        -2.585109         1.172659         2.386151
 C        -1.896265        -0.079314         1.750484
 H         0.950199         0.268393         0.298859
 H        -0.923949         2.490351        -0.247929
 H        -2.032182         1.109660        -0.639138
 H        -3.624211         2.683291         0.955646
 H        -1.603848         2.322437         4.012202
 H         0.636271         2.378692         1.916062
 H         0.355360         0.733722         2.898075
 H        -3.420242         1.068824         3.046481
 H        -1.666752        -0.858968         2.529666
 H        -2.548354        -0.623700         1.014884
