19
Iteration:   435
 O         0.166662        -0.029756         0.318760
 C        -0.742358         0.755837         1.053833
 C        -1.512065         1.803319         0.250462
 C        -2.590156         2.278792         1.250925
 O        -1.953206         3.206039         2.176856
 C        -1.584759         2.051817         3.018516
 C        -0.279240         1.351375         2.432420
 C        -2.671091         1.162408         2.355687
 C        -2.007389        -0.045455         1.534051
 H         0.412230         0.602722        -0.360806
 H        -0.997947         2.821606        -0.120682
 H        -1.858717         1.256165        -0.661043
 H        -3.508427         2.656682         0.736827
 H        -1.565221         2.386766         4.055360
 H         0.640205         1.979452         2.219900
 H         0.236667         0.711856         3.157907
 H        -3.701093         0.960358         2.823242
 H        -2.176123        -1.059857         1.985717
 H        -2.674737        -0.156796         0.616804
