19
Iteration:  1912charge 0 multiplicity 1
 O         0.213723        -0.104613         0.398359
 C        -0.818831         0.730151         1.037961
 C        -1.714182         1.750028         0.232218
 C        -2.739608         2.241473         1.263700
 O        -1.973974         3.203696         2.132459
 C        -1.447717         2.076840         2.878020
 C        -0.197215         1.678900         2.236200
 C        -2.589494         1.137812         2.335132
 C        -1.907110        -0.062585         1.808745
 H        -0.157637        -0.952956         0.045067
 H        -1.101169         2.532186        -0.086416
 H        -2.194668         1.294310        -0.720751
 H        -3.718444         2.580338         0.886242
 H        -1.360077         2.172074         3.952234
 H         0.041480         2.570682         1.764067
 H         0.671997         1.364563         2.722347
 H        -3.511427         0.875465         2.960726
 H        -1.443504        -0.741573         2.548166
 H        -2.514168        -0.628713         1.061100
