19
Iteration:  2700charge 0 multiplicity 1
 O         0.095097        -0.011677         0.378930
 C        -0.832450         0.819544         1.062163
 C        -1.583249         1.740346         0.220447
 C        -2.600422         2.223022         1.252424
 O        -1.922392         3.226941         2.175372
 C        -1.500371         1.994968         2.938231
 C        -0.203036         1.535128         2.289157
 C        -2.650423         1.122509         2.382688
 C        -1.955800        -0.036184         1.664423
 H        -0.171344        -0.113117        -0.545766
 H        -0.807134         2.437168        -0.263382
 H        -2.107748         1.208539        -0.546480
 H        -3.660495         2.630220         0.961134
 H        -1.477831         2.115918         4.042894
 H         0.492365         2.287630         1.975230
 H         0.210735         0.656492         2.911247
 H        -3.571595         1.263690         2.869040
 H        -1.536344        -0.935962         2.188419
 H        -2.647470        -0.501825         0.958465
