19
Iteration:  3883charge 0 multiplicity 1
 O         0.084224        -0.037497         0.267367
 C        -0.789133         0.770071         1.012315
 C        -1.682278         1.808393         0.212322
 C        -2.694888         2.277854         1.266086
 O        -1.886884         3.153607         2.186213
 C        -1.480309         2.060615         2.998431
 C        -0.217328         1.470409         2.307977
 C        -2.582341         1.156325         2.363238
 C        -1.981630        -0.069873         1.692058
 H         0.911011         0.470398         0.365003
 H        -1.244429         2.696317        -0.291903
 H        -2.177386         1.230783        -0.657164
 H        -3.607751         2.692591         0.769912
 H        -1.457209         2.235307         4.062349
 H         0.615021         2.172167         2.074874
 H         0.110072         0.666614         2.913821
 H        -3.475698         0.897626         3.020769
 H        -1.456228        -0.767797         2.445742
 H        -2.668021        -0.558633         0.935053
