19
Iteration:  2311charge 0 multiplicity 1
 O         0.184721        -0.160831         0.343036
 C        -0.824005         0.751354         1.004208
 C        -1.716230         1.767540         0.151272
 C        -2.698786         2.227662         1.279511
 O        -2.061701         3.273854         2.143650
 C        -1.461958         2.162339         2.895723
 C        -0.231240         1.541473         2.301647
 C        -2.570594         1.144610         2.401201
 C        -1.815156        -0.139252         1.797120
 H         0.153980         0.052500        -0.616990
 H        -1.194360         2.678036        -0.283079
 H        -2.117225         1.140910        -0.577568
 H        -3.602501         2.716978         0.945203
 H        -1.315454         2.405783         3.997671
 H         0.598646         2.404583         2.014203
 H         0.295593         0.950407         3.115084
 H        -3.456165         0.977676         2.967623
 H        -1.359524        -0.713844         2.615975
 H        -2.583935        -0.613357         1.193976
