19
Iteration:  3860
 O         0.050288        -0.070852         0.316926
 C        -0.754446         0.707846         1.049837
 C        -1.550489         1.813578         0.233725
 C        -2.627930         2.299068         1.334777
 O        -2.060431         3.210856         2.263014
 C        -1.437500         1.978516         2.869174
 C        -0.140969         1.513390         2.141941
 C        -2.654156         1.167959         2.369853
 C        -2.023778        -0.052514         1.710834
 H         0.956388         0.126072         0.645010
 H        -0.834433         2.661445        -0.140985
 H        -2.097616         1.492859        -0.703905
 H        -3.662932         2.458272         0.866750
 H        -1.279320         2.099968         3.912956
 H         0.308097         2.482871         1.870146
 H         0.523748         0.861755         2.680711
 H        -3.673264         1.028770         2.903803
 H        -1.591339        -0.828561         2.426866
 H        -2.650133        -0.479806         0.866835
