19
Iteration:  1195charge 0 multiplicity 1
 O         0.321116         0.133038         0.373489
 C        -0.860250         0.628246         1.068630
 C        -1.628478         1.748077         0.252877
 C        -2.684268         2.357466         1.229832
 O        -1.983606         3.201202         2.104132
 C        -1.476340         2.049066         2.905418
 C        -0.216518         1.408452         2.305494
 C        -2.633234         1.193945         2.330214
 C        -2.066807        -0.138722         1.756512
 H         0.092853        -0.055350        -0.550592
 H        -0.843756         2.523532        -0.102536
 H        -2.014396         1.038443        -0.558093
 H        -3.643660         2.842656         0.894253
 H        -1.594482         2.315962         3.998424
 H         0.628580         2.006465         1.962505
 H         0.198689         0.655529         2.976187
 H        -3.581977         1.187917         3.019273
 H        -1.555935        -0.768290         2.550417
 H        -2.717220        -0.765826         1.108119
