19
Iteration:  3844charge 0 multiplicity 1
 O         0.101068        -0.184493         0.235271
 C        -0.864653         0.711347         1.030920
 C        -1.586848         1.831813         0.263393
 C        -2.595388         2.297316         1.248906
 O        -2.054209         3.243897         2.337345
 C        -1.472710         2.121246         2.940434
 C        -0.240515         1.599621         2.175938
 C        -2.584437         1.109490         2.324340
 C        -1.943040        -0.129993         1.658814
 H         0.988949        -0.174167         0.636419
 H        -0.911039         2.662187         0.043942
 H        -2.067221         1.346947        -0.554100
 H        -3.421912         2.902024         0.934767
 H        -1.404279         2.204018         4.083054
 H         0.403904         2.348439         1.654875
 H         0.332492         0.953602         3.023757
 H        -3.357622         1.042258         3.000424
 H        -1.656317        -0.835719         2.395999
 H        -2.640937        -0.613007         1.028429
