19
Iteration:  4718charge 0 multiplicity 1
 O         0.212937        -0.035908         0.228257
 C        -0.798350         0.727575         1.015067
 C        -1.710958         1.782772         0.231546
 C        -2.638537         2.287506         1.414162
 O        -1.936683         3.185830         2.137357
 C        -1.483196         2.006572         2.960968
 C        -0.225959         1.490761         2.281935
 C        -2.661827         1.173461         2.410532
 C        -2.011358        -0.044444         1.630202
 H         1.116867         0.015698         0.568951
 H        -1.269724         2.727809        -0.206080
 H        -2.302635         1.337462        -0.585726
 H        -3.540511         2.710273         1.095643
 H        -1.409133         2.322890         4.034173
 H         0.581540         2.236209         1.902581
 H         0.185766         0.790385         3.113509
 H        -3.612377         0.995298         2.880258
 H        -1.600880        -0.833088         2.268068
 H        -2.633395        -0.513333         0.867303
