19
Iteration:  1505
 O         0.190947        -0.062173         0.271187
 C        -0.796893         0.675598         1.024226
 C        -1.590390         1.802977         0.150345
 C        -2.601601         2.322682         1.184768
 O        -2.081537         3.256679         2.285229
 C        -1.541717         2.101359         2.963450
 C        -0.271730         1.489636         2.241335
 C        -2.595746         1.204844         2.239187
 C        -1.903795        -0.158298         1.818000
 H         0.616056        -0.590332         0.981793
 H        -0.972320         2.643715        -0.230118
 H        -2.117936         1.362767        -0.646921
 H        -3.647922         2.666513         0.817619
 H        -1.506541         2.136667         4.090281
 H         0.479601         2.307326         1.942996
 H         0.292564         0.776276         2.981086
 H        -3.538369         1.057572         2.861679
 H        -1.745461        -0.574419         2.831693
 H        -2.416377        -0.878093         1.129991
