19
Iteration:  4103charge 0 multiplicity 1
 O         0.059384        -0.120167         0.317131
 C        -0.710287         0.757523         1.011446
 C        -1.517670         1.865615         0.201066
 C        -2.609377         2.337305         1.250807
 O        -2.061991         3.199020         2.330455
 C        -1.485930         1.932220         2.950121
 C        -0.134341         1.465216         2.203851
 C        -2.659871         1.147982         2.369713
 C        -2.018657        -0.004994         1.687919
 H         0.429453         0.344057        -0.445263
 H        -0.977018         2.683114        -0.154683
 H        -2.179175         1.548916        -0.709099
 H        -3.462624         2.620442         0.646688
 H        -1.480282         2.058917         4.011831
 H         0.455505         2.398184         1.821204
 H         0.464204         0.890555         2.947213
 H        -3.512326         0.951632         3.040463
 H        -1.908134        -0.780612         2.444019
 H        -2.583170        -0.711038         1.071727
