19
Iteration:  4807charge 0 multiplicity 1
 O         0.113645         0.120859         0.341202
 C        -0.834500         0.764569         1.067879
 C        -1.600363         1.797806         0.257117
 C        -2.620822         2.235462         1.199044
 O        -1.938640         3.153741         2.192518
 C        -1.445748         2.057348         2.966762
 C        -0.206293         1.403074         2.240489
 C        -2.618887         1.126480         2.377147
 C        -2.009340        -0.063934         1.738816
 H        -0.201913         0.097956        -0.583312
 H        -1.099265         2.614506        -0.146166
 H        -1.903580         1.198143        -0.622053
 H        -3.446764         2.670087         0.741856
 H        -1.338723         2.175138         4.056858
 H         0.589988         2.106613         1.862361
 H         0.101924         0.649434         2.995128
 H        -3.635429         0.895573         2.780797
 H        -1.530534        -0.882090         2.231639
 H        -2.727507        -0.482711         1.110886
