19
Iteration:  2480
 O         0.166581         0.037754         0.186589
 C        -0.809150         0.712706         1.058511
 C        -1.700961         1.691976         0.200388
 C        -2.612221         2.272296         1.241813
 O        -1.918881         3.226064         2.100764
 C        -1.492438         2.091519         2.999285
 C        -0.282302         1.500503         2.318994
 C        -2.644270         1.136826         2.435663
 C        -1.958668        -0.066719         1.755306
 H         0.829170        -0.264760         0.843608
 H        -1.046274         2.467131        -0.181109
 H        -2.110927         1.138489        -0.654023
 H        -3.559746         2.697093         0.785185
 H        -1.327045         2.373470         4.013487
 H         0.499500         2.236304         2.216965
 H         0.320102         0.703973         2.959829
 H        -3.617206         0.951606         2.925966
 H        -1.691926        -0.857282         2.465559
 H        -2.686453        -0.450328         1.024404
