19
Iteration:  2812
 O         0.062126        -0.115891         0.289379
 C        -0.804741         0.761094         1.004468
 C        -1.545110         1.823002         0.173919
 C        -2.582302         2.341992         1.239804
 O        -2.118243         3.220504         2.286845
 C        -1.472613         2.040765         2.896082
 C        -0.190225         1.518038         2.185016
 C        -2.603411         1.120587         2.351793
 C        -1.993985        -0.101334         1.814027
 H         1.028075         0.064522         0.412738
 H        -0.819793         2.535407        -0.316706
 H        -2.125890         1.377719        -0.637720
 H        -3.426686         2.856891         0.672331
 H        -1.329160         2.187215         4.029691
 H         0.708620         2.146864         1.944974
 H         0.334289         0.718719         2.829135
 H        -3.353842         1.133438         3.167838
 H        -1.564004        -0.739190         2.623154
 H        -2.685487        -0.725359         1.198336
