19
Iteration:  4212
 O         0.051799        -0.102755         0.182266
 C        -0.810777         0.823659         0.989445
 C        -1.549409         1.800774         0.192665
 C        -2.616073         2.299412         1.298017
 O        -1.976245         3.219055         2.309880
 C        -1.476556         1.991473         2.947017
 C        -0.222107         1.506824         2.292672
 C        -2.667056         1.113289         2.320968
 C        -1.961888        -0.060808         1.753684
 H         0.989164         0.071476         0.454762
 H        -1.015560         2.643656        -0.107216
 H        -2.083830         1.386833        -0.711670
 H        -3.565655         2.664175         0.848319
 H        -1.404280         2.127234         4.008155
 H         0.469929         2.432913         1.956785
 H         0.315485         0.788006         3.025216
 H        -3.675084         0.908714         2.781019
 H        -1.465762        -0.720034         2.479294
 H        -2.559942        -0.580496         0.982277
