19
Iteration:   304charge 0 multiplicity 1
 O         0.202380         0.146209         0.252296
 C        -0.833056         0.722895         1.039076
 C        -1.567138         1.738518         0.230567
 C        -2.539425         2.323354         1.254334
 O        -1.920957         3.263696         2.226853
 C        -1.585297         1.991305         2.978940
 C        -0.312259         1.333730         2.349035
 C        -2.686187         1.181243         2.222173
 C        -1.976659        -0.069244         1.705797
 H         0.403555        -0.765601         0.462316
 H        -0.846999         2.527680        -0.100503
 H        -2.057988         1.465407        -0.633296
 H        -3.357961         2.780564         0.705446
 H        -1.798153         1.900314         4.029905
 H         0.347962         2.135121         2.073050
 H        -0.073772         0.539472         3.004864
 H        -3.548757         0.978119         2.838093
 H        -1.444141        -0.587722         2.518555
 H        -2.549728        -0.898737         1.198146
