19
Iteration:  1153
 O         0.149562        -0.125796         0.383009
 C        -0.786502         0.857093         1.075407
 C        -1.563855         1.833338         0.114540
 C        -2.638367         2.275356         1.222874
 O        -2.026201         3.169569         2.217579
 C        -1.554957         2.081586         2.974726
 C        -0.210962         1.538347         2.324777
 C        -2.611022         1.153648         2.311082
 C        -1.877433        -0.091638         1.662221
 H        -0.393209        -0.870710         0.061398
 H        -0.867806         2.692725        -0.101701
 H        -2.255629         1.367755        -0.626008
 H        -3.600771         2.540184         0.656943
 H        -1.713454         2.169418         4.073057
 H         0.488339         2.325434         2.056049
 H         0.219739         0.781395         2.851270
 H        -3.474371         1.061789         2.968235
 H        -1.408627        -0.730983         2.418155
 H        -2.472704        -0.526046         0.935165
