19
Iteration:   561
 O         0.144066         0.116188         0.260658
 C        -0.824738         0.730912         1.021465
 C        -1.548912         1.710623         0.168071
 C        -2.488639         2.373877         1.221392
 O        -1.885159         3.166890         2.224430
 C        -1.600766         1.978592         3.034515
 C        -0.241027         1.437513         2.396100
 C        -2.738996         1.146163         2.228398
 C        -2.060452        -0.070611         1.676957
 H         1.009885         0.002152         0.712545
 H        -0.958271         2.428570        -0.302454
 H        -2.232460         1.132405        -0.449020
 H        -3.373140         3.035956         0.935436
 H        -1.652779         2.071916         4.142505
 H         0.485045         2.275990         2.272379
 H         0.265561         0.604860         2.942201
 H        -3.677995         1.076770         2.726400
 H        -1.745874        -0.880608         2.464865
 H        -2.646727        -0.676264         0.950930
