19
Iteration:  1177
 O         0.246290         0.071473         0.334522
 C        -0.734007         0.706467         1.124968
 C        -1.574337         1.726527         0.263067
 C        -2.632123         2.196599         1.253444
 O        -1.976492         3.248280         2.131746
 C        -1.476550         2.104889         2.895680
 C        -0.236475         1.460109         2.302254
 C        -2.712468         1.136722         2.375649
 C        -2.046587        -0.085170         1.679037
 H        -0.216044        -0.518021        -0.274919
 H        -0.950038         2.603025         0.117389
 H        -2.124738         1.359716        -0.596928
 H        -3.543294         2.455336         0.657848
 H        -1.352021         2.369358         3.929509
 H         0.393598         2.310494         1.986865
 H         0.278000         0.846049         3.041997
 H        -3.597505         0.975536         2.881716
 H        -1.969920        -0.929107         2.350079
 H        -2.701824        -0.256787         0.846943
