19
Iteration:  2407charge 0 multiplicity 1
 O         0.027991        -0.101414         0.344598
 C        -0.834401         0.661178         1.079977
 C        -1.564265         1.721882         0.191614
 C        -2.633793         2.278962         1.252728
 O        -2.112798         3.236902         2.155652
 C        -1.449740         2.114196         2.925105
 C        -0.183394         1.561301         2.231321
 C        -2.540471         1.155974         2.356747
 C        -1.906061        -0.109269         1.801174
 H         0.666079         0.496328        -0.136509
 H        -0.869060         2.630767        -0.056763
 H        -2.168372         1.369726        -0.669044
 H        -3.518903         2.627094         0.814245
 H        -1.357375         2.269332         4.076158
 H         0.505155         2.328686         1.876199
 H         0.435086         0.951914         2.861239
 H        -3.397844         1.079035         2.918683
 H        -1.371221        -0.952088         2.325796
 H        -2.658434        -0.305665         1.051617
