19
Iteration:   157
 O         0.353106         0.161059         0.397753
 C        -0.808501         0.672570         1.000123
 C        -1.603149         1.841360         0.220182
 C        -2.627585         2.364425         1.230065
 O        -1.925938         3.214868         2.239551
 C        -1.471697         2.002259         2.867275
 C        -0.329188         1.305480         2.420886
 C        -2.640523         1.165916         2.267724
 C        -2.165002        -0.140136         1.628588
 H         0.181708        -0.534051        -0.315497
 H        -0.884434         2.533166        -0.092923
 H        -1.986578         1.503743        -0.778865
 H        -3.550369         2.863775         0.824446
 H        -1.502661         2.314791         3.944767
 H         0.601985         1.886959         2.274088
 H        -0.103919         0.612548         3.244083
 H        -3.525884         1.190556         2.996470
 H        -1.891252        -1.002926         2.277694
 H        -2.842757        -0.636275         0.940633
