19
Iteration:  4183charge 0 multiplicity 1
 O         0.197956         0.006211         0.345626
 C        -0.851385         0.778988         1.008416
 C        -1.720110         1.762883         0.187796
 C        -2.631492         2.409181         1.329897
 O        -1.876786         3.225459         2.238957
 C        -1.431218         1.960795         2.929406
 C        -0.270662         1.381399         2.269914
 C        -2.643141         1.140107         2.326709
 C        -2.004039        -0.130413         1.666390
 H         0.741159         0.781032         0.080085
 H        -1.108871         2.520988        -0.418507
 H        -2.364102         1.180735        -0.485916
 H        -3.565684         2.775884         0.975011
 H        -1.443474         2.180965         4.046991
 H         0.422125         2.173324         1.975550
 H         0.326290         0.756238         2.891393
 H        -3.635348         0.937667         2.796784
 H        -1.588094        -0.917461         2.363897
 H        -2.720923        -0.452398         0.929280
