19
Iteration:  4450charge 0 multiplicity 1
 O         0.043310         0.164614         0.205786
 C        -0.806850         0.774309         1.057991
 C        -1.616409         1.746264         0.254149
 C        -2.653998         2.204164         1.240569
 O        -1.921194         3.114775         2.166436
 C        -1.459992         2.064907         2.938540
 C        -0.196038         1.429981         2.323371
 C        -2.604974         1.167888         2.401101
 C        -1.989927        -0.051872         1.687075
 H         0.677978        -0.443762         0.641307
 H        -0.941364         2.478694        -0.126323
 H        -2.009459         1.205609        -0.674181
 H        -3.661225         2.491913         0.758052
 H        -1.363910         2.371680         3.934842
 H         0.414940         2.281340         2.282841
 H         0.209633         0.532771         3.049772
 H        -3.532914         1.179703         3.059383
 H        -1.504421        -0.743483         2.351325
 H        -2.734068        -0.564625         1.052652
