19
Iteration:  2458
 O         0.130894         0.071877         0.352084
 C        -0.795376         0.732249         1.119957
 C        -1.700349         1.710049         0.171084
 C        -2.635945         2.281781         1.259428
 O        -1.973207         3.218864         2.179122
 C        -1.468085         2.102579         2.892326
 C        -0.211624         1.479069         2.283752
 C        -2.570512         1.147201         2.319050
 C        -1.931222        -0.068553         1.682799
 H        -0.041230        -0.887793         0.474960
 H        -1.302333         2.403171        -0.549423
 H        -2.374319         1.023617        -0.391736
 H        -3.646064         2.714458         0.937908
 H        -1.407529         2.224161         3.936072
 H         0.616662         2.150042         2.151030
 H         0.399448         0.689042         2.881223
 H        -3.459158         1.092552         3.004469
 H        -1.497660        -0.687985         2.486761
 H        -2.476906        -0.692334         0.952949
