19
Iteration:  1994charge 0 multiplicity 1
 O         0.057258        -0.034925         0.302063
 C        -0.844377         0.771209         1.103176
 C        -1.712968         1.662109         0.172530
 C        -2.696543         2.217823         1.238140
 O        -1.975547         3.152834         2.058071
 C        -1.487015         2.095289         2.935291
 C        -0.204229         1.594727         2.240278
 C        -2.544854         1.182074         2.395619
 C        -1.847893        -0.042774         1.850247
 H         0.939204         0.337065         0.435980
 H        -1.151078         2.592596        -0.294580
 H        -2.155073         1.088745        -0.656317
 H        -3.706067         2.550304         0.963372
 H        -1.439786         2.253364         4.050319
 H         0.536213         2.386040         1.804017
 H         0.306063         0.871260         3.006932
 H        -3.358750         1.005012         3.049869
 H        -1.363594        -0.699894         2.599103
 H        -2.295105        -0.757067         1.175758
