19
Iteration:  2630charge 0 multiplicity 1
 O         0.087120         0.078740         0.325239
 C        -0.841495         0.744726         1.107378
 C        -1.637685         1.753288         0.187459
 C        -2.569826         2.313148         1.248797
 O        -1.910239         3.212455         2.181714
 C        -1.511624         2.017667         2.947800
 C        -0.156161         1.494657         2.343762
 C        -2.612755         1.174447         2.275920
 C        -1.987813        -0.154457         1.695908
 H        -0.176505        -0.839192         0.223058
 H        -1.047205         2.554246        -0.166370
 H        -2.109269         1.236492        -0.737665
 H        -3.605214         2.744686         1.025201
 H        -1.611478         2.281541         3.999620
 H         0.546241         2.341709         2.053302
 H         0.348220         0.796643         2.944750
 H        -3.659830         1.091639         2.795274
 H        -1.640360        -0.971910         2.329578
 H        -2.487761        -0.726788         0.865518
