19
Iteration:  1168
 O         0.179741         0.003949         0.357749
 C        -0.756363         0.696339         1.033197
 C        -1.539725         1.753687         0.233120
 C        -2.627962         2.230340         1.251615
 O        -2.021179         3.216806         2.124001
 C        -1.502839         2.054548         2.960737
 C        -0.260995         1.528160         2.337990
 C        -2.631364         1.113852         2.383853
 C        -1.990091         0.019225         1.663189
 H        -0.308149        -0.684516        -0.113450
 H        -0.980718         2.580249        -0.162181
 H        -1.794234         1.218602        -0.669288
 H        -3.568362         2.656068         0.913905
 H        -1.379149         2.395041         3.967532
 H         0.421387         2.388596         2.115380
 H         0.393338         0.858153         3.117557
 H        -3.581038         0.887290         2.836548
 H        -1.733308        -0.901023         2.199730
 H        -2.717704        -0.398951         0.851232
