19
Iteration:  4142
 O         0.088901        -0.021504         0.219893
 C        -0.822340         0.714708         1.054606
 C        -1.575072         1.856892         0.241160
 C        -2.584089         2.259053         1.272965
 O        -1.910770         3.264236         2.175587
 C        -1.544353         2.053669         2.954822
 C        -0.266539         1.434927         2.380009
 C        -2.626099         1.062684         2.370263
 C        -1.969815        -0.105845         1.688759
 H         0.205876         0.424908        -0.646555
 H        -0.907827         2.755237        -0.087619
 H        -2.061758         1.411182        -0.602584
 H        -3.540110         2.785974         0.954821
 H        -1.342288         2.281117         4.041526
 H         0.364254         2.300331         2.323700
 H         0.192427         0.618377         2.948829
 H        -3.418671         0.793365         3.052494
 H        -1.547732        -0.830187         2.440389
 H        -2.561745        -0.458944         0.823062
