19
Iteration:   665charge 0 multiplicity 1
 O         0.183217         0.013676         0.366116
 C        -0.783631         0.790712         1.077041
 C        -1.643734         1.675287         0.174260
 C        -2.548944         2.346653         1.207787
 O        -1.822416         3.189955         2.237849
 C        -1.685251         1.981740         3.000098
 C        -0.256962         1.452867         2.324540
 C        -2.668575         1.147432         2.262377
 C        -1.993593        -0.039028         1.673172
 H         0.428215         0.542906        -0.410350
 H        -0.960447         2.441465        -0.379111
 H        -2.280620         1.265398        -0.636015
 H        -3.442371         2.880913         0.981538
 H        -1.693208         1.937062         4.090016
 H         0.458492         2.316095         2.154663
 H         0.168977         0.629325         2.996704
 H        -3.628898         0.923643         2.750032
 H        -1.674775        -0.717687         2.424841
 H        -2.600066        -0.465340         0.865664
