19
Iteration:  4716
 O         0.213067        -0.031070         0.216662
 C        -0.810638         0.734678         1.019513
 C        -1.699054         1.769583         0.228087
 C        -2.639365         2.295018         1.421457
 O        -1.935397         3.194842         2.130080
 C        -1.491568         2.004238         2.957468
 C        -0.212420         1.487433         2.301990
 C        -2.664163         1.161085         2.412449
 C        -1.995378        -0.036339         1.626581
 H         1.090929         0.005185         0.620906
 H        -1.307179         2.760984        -0.269419
 H        -2.289742         1.324988        -0.588087
 H        -3.595526         2.728035         1.073657
 H        -1.373800         2.304795         4.001599
 H         0.556673         2.216151         1.904515
 H         0.130234         0.735706         3.108716
 H        -3.583793         0.975777         2.904195
 H        -1.627309        -0.832305         2.283727
 H        -2.717169        -0.548183         0.922784
