19
Iteration:  2568charge 0 multiplicity 1
 O         0.145557         0.039670         0.407965
 C        -0.865929         0.690562         1.118453
 C        -1.552523         1.803506         0.265650
 C        -2.624157         2.315447         1.256749
 O        -1.977041         3.200626         2.197450
 C        -1.491570         2.049889         2.873307
 C        -0.204153         1.471643         2.170448
 C        -2.637753         1.133956         2.330166
 C        -1.969636        -0.081510         1.685651
 H        -0.199928        -0.766797        -0.023424
 H        -0.899681         2.608538        -0.087589
 H        -1.982359         1.235194        -0.538776
 H        -3.569397         2.838473         0.930185
 H        -1.362883         2.187082         3.924635
 H         0.379114         2.250310         1.733520
 H         0.391948         0.712501         2.862950
 H        -3.555743         1.076242         2.850738
 H        -1.508861        -0.779864         2.410241
 H        -2.664611        -0.521524         0.977130
