19
Iteration:  3604
 O         0.085294        -0.066993         0.154606
 C        -0.769177         0.706904         1.034090
 C        -1.552710         1.803503         0.166175
 C        -2.651554         2.278886         1.304844
 O        -2.047019         3.242856         2.238340
 C        -1.427800         2.113527         2.919551
 C        -0.230532         1.496886         2.276954
 C        -2.597055         1.093921         2.342048
 C        -1.984318        -0.051382         1.781143
 H         0.705059        -0.509326         0.789244
 H        -0.938335         2.687773        -0.180106
 H        -2.233516         1.213108        -0.590813
 H        -3.626268         2.713142         1.005692
 H        -1.426504         2.428632         4.044126
 H         0.557674         2.298511         2.226318
 H         0.119452         0.741671         2.979202
 H        -3.506658         0.996606         3.003213
 H        -1.482819        -0.781112         2.513878
 H        -2.652906        -0.626182         1.139329
