19
Iteration:  1007charge 0 multiplicity 1
 O         0.130260        -0.231090         0.390846
 C        -0.770951         0.731019         0.984533
 C        -1.603362         1.855121         0.252056
 C        -2.713100         2.246976         1.249558
 O        -2.124937         3.251317         2.215520
 C        -1.446108         2.054174         2.937207
 C        -0.156556         1.546910         2.275226
 C        -2.591205         1.140687         2.304699
 C        -1.932775        -0.035551         1.635669
 H         1.063149         0.045142         0.410076
 H        -1.080398         2.817724         0.178311
 H        -2.125570         1.484865        -0.683373
 H        -3.609248         2.668132         0.772689
 H        -1.432231         2.314573         4.011028
 H         0.472322         2.345909         1.911575
 H         0.421974         1.042600         2.965186
 H        -3.500802         1.114204         2.948286
 H        -1.562581        -0.861721         2.273044
 H        -2.597514        -0.495066         0.970242
