19
Iteration:  2046
 O         0.090762        -0.042721         0.324615
 C        -0.772273         0.733719         1.040573
 C        -1.667630         1.699942         0.208433
 C        -2.670559         2.184428         1.253277
 O        -2.056104         3.234816         2.101192
 C        -1.480022         2.124256         2.911645
 C        -0.108097         1.659499         2.152658
 C        -2.563279         1.118636         2.441339
 C        -1.947829        -0.116032         1.839228
 H         0.675330        -0.480741         0.963387
 H        -1.158951         2.686342        -0.108245
 H        -2.238913         1.222999        -0.604280
 H        -3.656968         2.452111         0.935305
 H        -1.225577         2.417943         3.991395
 H         0.183564         2.633205         1.702587
 H         0.618383         1.142076         2.697812
 H        -3.500682         0.885358         3.065308
 H        -1.600796        -0.987626         2.438566
 H        -2.564004        -0.616100         1.060315
