19
Iteration:  4810
 O         0.142625         0.143962         0.353292
 C        -0.846971         0.745062         1.067876
 C        -1.604229         1.781746         0.214084
 C        -2.629858         2.248605         1.211757
 O        -1.926351         3.161998         2.193072
 C        -1.456212         2.062129         2.964739
 C        -0.206448         1.382707         2.231069
 C        -2.616151         1.096722         2.379391
 C        -2.017826        -0.048017         1.743278
 H        -0.202414         0.065880        -0.563040
 H        -1.009870         2.620349        -0.146100
 H        -1.944575         1.236033        -0.685169
 H        -3.620101         2.716463         0.801431
 H        -1.356674         2.084392         4.066322
 H         0.569562         2.058981         1.899126
 H         0.182319         0.658331         2.966830
 H        -3.661827         1.006129         2.886629
 H        -1.477597        -0.834784         2.340393
 H        -2.828291        -0.449045         1.078673
