19
Iteration:  3933charge 0 multiplicity 1
 O         0.167257         0.059398         0.267596
 C        -0.804252         0.777941         1.045922
 C        -1.625197         1.753795         0.193878
 C        -2.586513         2.280785         1.307326
 O        -1.927200         3.140764         2.197898
 C        -1.454251         1.970460         2.903795
 C        -0.193353         1.450110         2.302736
 C        -2.681912         1.129260         2.331944
 C        -2.086295        -0.042995         1.817988
 H         0.004817         0.444089        -0.601864
 H        -0.969069         2.660155        -0.124940
 H        -1.991532         1.235778        -0.641925
 H        -3.509660         2.715699         0.786612
 H        -1.301067         2.226583         3.990177
 H         0.411926         2.233132         1.897439
 H         0.173885         0.671080         3.117731
 H        -3.571933         1.291623         2.989033
 H        -1.747083        -0.776789         2.474629
 H        -2.582876        -0.459866         0.952812
