19
Iteration:  4795charge 0 multiplicity 1
 O         0.083768        -0.017442         0.249355
 C        -0.809401         0.770289         1.072494
 C        -1.553802         1.796983         0.277263
 C        -2.621033         2.262067         1.309666
 O        -1.993793         3.182428         2.161845
 C        -1.476325         2.025664         2.934078
 C        -0.217065         1.485146         2.358726
 C        -2.640901         1.156170         2.349803
 C        -1.930578        -0.104586         1.656451
 H        -0.152095         0.100004        -0.677533
 H        -0.960175         2.637839        -0.042062
 H        -2.206974         1.353833        -0.498579
 H        -3.497994         2.628591         0.897213
 H        -1.367264         2.469635         3.922333
 H         0.581467         2.282017         2.246147
 H         0.345951         0.685512         2.890666
 H        -3.495244         1.089778         3.042388
 H        -1.699078        -0.797299         2.440961
 H        -2.425566        -0.512504         0.825880
