19
Iteration:  3130charge 0 multiplicity 1
 O         0.108248         0.219426         0.304779
 C        -0.875159         0.694312         1.148135
 C        -1.700865         1.666152         0.256013
 C        -2.630597         2.241622         1.292473
 O        -1.842681         3.236989         2.065216
 C        -1.492185         2.099697         2.908373
 C        -0.193332         1.450598         2.257228
 C        -2.556132         1.117839         2.393252
 C        -2.011529        -0.145044         1.714813
 H         0.437998        -0.665234         0.500814
 H        -1.193343         2.444911        -0.300622
 H        -2.473282         1.007932        -0.339653
 H        -3.599823         2.671792         0.878472
 H        -1.379765         2.395350         3.994849
 H         0.393311         2.291299         1.793302
 H         0.391435         0.804203         2.873652
 H        -3.452018         0.926107         2.929734
 H        -1.755978        -0.884240         2.450112
 H        -2.522103        -0.504350         0.780143
