19
Iteration:  1798charge 0 multiplicity 1
 O         0.266693        -0.177415         0.442525
 C        -0.713108         0.690953         1.014282
 C        -1.707928         1.781300         0.214368
 C        -2.739023         2.251101         1.307542
 O        -2.082996         3.238337         2.133800
 C        -1.504144         2.139825         2.887935
 C        -0.201533         1.484845         2.229109
 C        -2.564991         1.181924         2.400018
 C        -1.916536         0.013012         1.677585
 H         0.099840        -0.142684        -0.526263
 H        -1.353497         2.724895        -0.356161
 H        -2.329300         1.343680        -0.515343
 H        -3.757793         2.640676         1.029691
 H        -1.436911         2.279949         4.006259
 H         0.515601         2.256188         1.852335
 H         0.341377         0.906460         2.964586
 H        -3.388430         0.959750         3.080459
 H        -1.426353        -0.497801         2.615735
 H        -2.459537        -0.683878         0.987639
