19
Iteration:  4760
 O         0.072412        -0.157828         0.299508
 C        -0.793659         0.777107         0.992465
 C        -1.579093         1.838478         0.243248
 C        -2.575793         2.309045         1.281161
 O        -2.074053         3.177815         2.317287
 C        -1.474724         2.058856         2.969909
 C        -0.218498         1.509632         2.208597
 C        -2.642127         1.127464         2.305171
 C        -1.904501        -0.047378         1.709987
 H         0.432775         0.319296        -0.458693
 H        -0.839486         2.578450        -0.264764
 H        -2.179458         1.497673        -0.620099
 H        -3.502472         2.658636         0.827777
 H        -1.291437         2.161968         4.058391
 H         0.331065         2.447700         2.018694
 H         0.280350         0.679838         2.759710
 H        -3.479584         1.219031         2.937208
 H        -1.539133        -0.728479         2.493680
 H        -2.358801        -0.757526         0.986552
