19
Iteration:  3095
 O         0.097327        -0.012945         0.187347
 C        -0.762414         0.778392         1.040555
 C        -1.646531         1.754665         0.189825
 C        -2.673897         2.245741         1.261972
 O        -1.989022         3.205185         2.173542
 C        -1.517241         2.075729         2.906409
 C        -0.193920         1.388910         2.245283
 C        -2.658474         1.161117         2.427856
 C        -1.883784         0.030777         1.844822
 H         0.791211        -0.283440         0.802860
 H        -1.088278         2.561290        -0.511272
 H        -2.278234         1.227565        -0.587945
 H        -3.668482         2.737504         0.793086
 H        -1.401074         2.317148         4.011367
 H         0.602159         2.087446         2.076361
 H         0.453205         0.637034         2.824373
 H        -3.501628         0.998305         3.061686
 H        -1.558489        -0.621496         2.673773
 H        -2.479784        -0.676070         1.199349
