19
Iteration:  2312
 O         0.199105        -0.156372         0.339391
 C        -0.820562         0.743413         1.004716
 C        -1.710832         1.762972         0.155796
 C        -2.707442         2.233091         1.279054
 O        -2.058069         3.279775         2.140999
 C        -1.459600         2.162007         2.898526
 C        -0.233730         1.540882         2.300229
 C        -2.577054         1.143976         2.409752
 C        -1.821633        -0.134018         1.790922
 H         0.115969         0.026572        -0.611136
 H        -1.197779         2.644894        -0.284358
 H        -2.125870         1.124931        -0.577534
 H        -3.633503         2.739942         0.931596
 H        -1.338871         2.383235         3.972713
 H         0.593198         2.381507         2.026283
 H         0.321708         0.946082         3.084200
 H        -3.468406         0.926434         3.029357
 H        -1.372105        -0.686699         2.599042
 H        -2.607727        -0.611407         1.202795
