19
Iteration:  3499
 O         0.122590         0.089707         0.159258
 C        -0.782002         0.710578         1.116657
 C        -1.675117         1.751054         0.327268
 C        -2.709075         2.255162         1.298610
 O        -1.830198         3.209191         2.018570
 C        -1.506847         2.015189         2.970102
 C        -0.227551         1.437048         2.333015
 C        -2.657214         1.125133         2.369421
 C        -1.970825        -0.026258         1.726114
 H         0.675671        -0.461423         0.757501
 H        -1.150205         2.637861        -0.291570
 H        -2.087872         1.304937        -0.584739
 H        -3.690638         2.769770         1.053993
 H        -1.502700         2.313889         4.000211
 H         0.473078         2.236616         2.078176
 H         0.436538         0.930359         3.153651
 H        -3.580620         0.962636         2.947941
 H        -1.761166        -0.821631         2.526200
 H        -2.571244        -0.585713         0.933316
