19
Iteration:   616charge 0 multiplicity 1
 O         0.162712        -0.049897         0.354376
 C        -0.823585         0.725721         0.978681
 C        -1.377714         2.016841         0.317246
 C        -2.577807         2.242206         1.158134
 O        -2.091609         3.149937         2.248177
 C        -1.492444         2.078454         2.913734
 C        -0.334094         1.384332         2.255590
 C        -2.622586         1.154273         2.332912
 C        -1.974838        -0.074884         1.686802
 H        -0.138489        -0.984530         0.225245
 H        -0.852614         2.934358         0.167052
 H        -1.821644         1.717183        -0.653761
 H        -3.578261         2.652905         0.789811
 H        -1.331467         2.114711         4.026222
 H         0.340306         2.190693         1.987207
 H         0.005450         0.656355         2.990111
 H        -3.519529         1.252313         2.938691
 H        -1.467299        -0.862462         2.372847
 H        -2.762450        -0.314378         0.924704
