19
Iteration:  3005
 O         0.217357         0.108641         0.306580
 C        -0.849109         0.706463         1.065865
 C        -1.725672         1.708643         0.254393
 C        -2.593741         2.289973         1.291039
 O        -1.857362         3.216725         2.062701
 C        -1.496064         2.048057         2.977683
 C        -0.295512         1.436894         2.279372
 C        -2.662716         1.152297         2.383710
 C        -1.933063        -0.088197         1.752382
 H         0.005861         0.053250        -0.660945
 H        -1.051934         2.515047        -0.326122
 H        -2.262636         1.187360        -0.521359
 H        -3.611967         2.684004         0.915612
 H        -1.431274         2.298637         4.034900
 H         0.401192         2.241293         2.021820
 H         0.177624         0.553700         2.851128
 H        -3.554217         1.070901         3.075139
 H        -1.664454        -0.772353         2.606492
 H        -2.515780        -0.800515         1.168457
