19
Iteration:   927
 O         0.236516         0.082791         0.319922
 C        -0.866316         0.716302         1.098999
 C        -1.613480         1.711687         0.204453
 C        -2.609442         2.305671         1.218568
 O        -1.949739         3.209515         2.139667
 C        -1.553330         2.009564         2.989054
 C        -0.221846         1.439416         2.323929
 C        -2.646792         1.164168         2.320101
 C        -1.956223        -0.113300         1.769354
 H         0.071054         0.219662        -0.632067
 H        -0.943954         2.428440        -0.315819
 H        -2.185620         1.275701        -0.675351
 H        -3.577331         2.675108         0.938790
 H        -1.587262         2.415017         3.994936
 H         0.484974         2.246523         2.090875
 H         0.087989         0.633869         2.934363
 H        -3.607648         1.265225         2.767367
 H        -1.649444        -0.667386         2.646049
 H        -2.492103        -0.690345         0.935601
