19
Iteration:  2880
 O         0.209948         0.094752         0.199456
 C        -0.840711         0.730034         1.024936
 C        -1.669027         1.724458         0.215574
 C        -2.640527         2.261093         1.258364
 O        -1.953716         3.186782         2.110588
 C        -1.482012         2.067928         3.006335
 C        -0.253207         1.394228         2.299090
 C        -2.579298         1.204754         2.409108
 C        -1.976998        -0.018122         1.764991
 H         0.123994        -0.871495         0.339210
 H        -1.257397         2.589211        -0.141287
 H        -2.239876         1.248957        -0.619472
 H        -3.528917         2.616787         0.863555
 H        -1.641245         2.371133         4.066804
 H         0.674996         2.102103         2.244260
 H         0.293996         0.598211         2.924310
 H        -3.530479         0.957092         2.923421
 H        -1.491993        -0.462070         2.613693
 H        -2.623189        -0.736511         1.201304
