19
Iteration:  3678
 O         0.069662         0.023992         0.232357
 C        -0.784036         0.716942         1.064782
 C        -1.649699         1.762512         0.232286
 C        -2.648726         2.347383         1.321361
 O        -1.983370         3.203235         2.169830
 C        -1.471474         2.114117         2.891850
 C        -0.226997         1.432470         2.235210
 C        -2.656724         1.141570         2.354852
 C        -1.887905        -0.085126         1.697659
 H         0.680346        -0.269191         0.917407
 H        -0.922374         2.381320        -0.141846
 H        -2.116162         1.003761        -0.436286
 H        -3.590445         2.775049         1.029659
 H        -1.226735         2.326303         3.975260
 H         0.626481         2.176325         2.074120
 H         0.161239         0.748773         3.011260
 H        -3.384163         0.734073         3.138434
 H        -1.659715        -0.714685         2.509822
 H        -2.475959        -0.666710         1.024977
