19
Iteration:   521charge 0 multiplicity 1
 O         0.164391        -0.008757         0.312307
 C        -0.834358         0.787903         1.071259
 C        -1.538401         1.872297         0.262384
 C        -2.623913         2.326869         1.298876
 O        -1.988334         3.195611         2.165507
 C        -1.509184         2.046574         2.918830
 C        -0.181671         1.315318         2.347445
 C        -2.669601         1.128327         2.306450
 C        -2.052126        -0.097856         1.604045
 H         1.012588         0.146434         0.755395
 H        -0.775666         2.738909         0.026826
 H        -1.851808         1.515517        -0.743878
 H        -3.465347         2.652127         0.641419
 H        -1.626266         2.410727         3.933524
 H         0.619545         2.009738         2.133907
 H        -0.100016         0.455781         3.076434
 H        -3.662505         0.970869         2.850988
 H        -1.693901        -0.826978         2.282899
 H        -2.791685        -0.336267         0.810313
