19
Iteration:   182
 O         0.185048        -0.041791         0.443087
 C        -0.814109         0.831234         0.996103
 C        -1.579151         1.844289         0.241372
 C        -2.599032         2.316845         1.246451
 O        -1.926019         3.163710         2.172001
 C        -1.565105         1.938707         3.055434
 C        -0.222631         1.407039         2.364091
 C        -2.747293         1.163484         2.271229
 C        -1.962672        -0.001468         1.593329
 H         0.299191         0.052052        -0.531402
 H        -0.940188         2.688224        -0.208394
 H        -1.956204         1.346226        -0.604123
 H        -3.489299         2.800113         0.780002
 H        -1.666713         2.300563         4.073248
 H         0.709379         2.021910         2.131635
 H         0.165041         0.443522         2.884100
 H        -3.739156         1.102273         2.652941
 H        -1.565508        -0.864985         2.139946
 H        -2.506546        -0.560536         0.762749
