19
Iteration:  4535charge 0 multiplicity 1
 O         0.160403         0.025660         0.253576
 C        -0.730772         0.722278         1.066017
 C        -1.732992         1.843583         0.257230
 C        -2.694730         2.286008         1.343215
 O        -1.917281         3.192490         2.154250
 C        -1.465816         2.015170         2.930706
 C        -0.261757         1.511216         2.240593
 C        -2.606666         1.114266         2.389070
 C        -1.969051        -0.053852         1.621144
 H         0.348789        -0.855276         0.645121
 H        -1.028584         2.609432         0.010793
 H        -2.046472         1.293494        -0.623641
 H        -3.649513         2.697739         0.953846
 H        -1.343552         2.295406         4.023472
 H         0.576692         2.224598         2.103630
 H         0.228682         0.858239         2.939003
 H        -3.408021         0.713710         3.064655
 H        -1.763711        -0.866149         2.376935
 H        -2.687959        -0.436973         0.923982
