19
Iteration:  4705charge 0 multiplicity 1
 O         0.146982         0.043351         0.187241
 C        -0.829515         0.789257         1.011310
 C        -1.679318         1.745856         0.207093
 C        -2.721049         2.287903         1.270733
 O        -1.895299         3.256721         2.184488
 C        -1.482719         2.065431         2.939625
 C        -0.219756         1.390229         2.357978
 C        -2.617187         1.080640         2.391425
 C        -1.950587        -0.049832         1.688597
 H         0.786311        -0.059964         0.920678
 H        -1.090148         2.588309        -0.364693
 H        -2.165764         1.034668        -0.482870
 H        -3.678609         2.690650         0.899288
 H        -1.377901         2.239297         4.017043
 H         0.570458         2.212373         2.293845
 H         0.243637         0.460380         2.875495
 H        -3.333523         0.877105         3.143689
 H        -1.635051        -0.795613         2.418649
 H        -2.771992        -0.473990         1.045779
