19
Iteration:  2800charge 0 multiplicity 1
 O        -0.014129        -0.156647         0.366231
 C        -0.870988         0.701948         1.006286
 C        -1.558775         1.862545         0.258914
 C        -2.627102         2.322691         1.239065
 O        -2.097570         3.195175         2.274859
 C        -1.421039         2.070673         2.909768
 C        -0.154817         1.459602         2.188188
 C        -2.577606         1.193659         2.244885
 C        -1.863503        -0.072474         1.739474
 H         0.796387         0.383487         0.380032
 H        -0.874131         2.757402        -0.053680
 H        -2.084331         1.473689        -0.609123
 H        -3.709766         2.599048         0.827527
 H        -1.349704         2.279805         4.040545
 H         0.467123         2.298460         1.843149
 H         0.263790         0.753383         2.972659
 H        -3.546428         1.080593         2.761857
 H        -1.309173        -0.628089         2.558194
 H        -2.418092        -0.803656         1.108723
