19
Iteration:  4454
 O         0.025000         0.153043         0.198569
 C        -0.822357         0.758031         1.081130
 C        -1.605168         1.774435         0.248479
 C        -2.632943         2.218450         1.269738
 O        -1.935384         3.114775         2.168304
 C        -1.482829         2.029985         2.874046
 C        -0.202186         1.446097         2.356029
 C        -2.620638         1.173910         2.390835
 C        -1.926663        -0.037912         1.707063
 H         0.562275        -0.545113         0.592948
 H        -0.886720         2.481594        -0.201517
 H        -1.942485         1.167496        -0.609365
 H        -3.579605         2.577687         0.868609
 H        -1.462601         2.352550         3.951213
 H         0.506251         2.281764         2.147461
 H         0.147812         0.648503         2.864440
 H        -3.474808         1.077469         3.052817
 H        -1.550400        -0.825688         2.426110
 H        -2.670528        -0.568706         1.029657
