19
Iteration:  2419
 O         0.104916        -0.126729         0.372537
 C        -0.841494         0.730550         1.034404
 C        -1.556927         1.791875         0.262907
 C        -2.584175         2.187619         1.229862
 O        -2.040986         3.243763         2.197709
 C        -1.465508         2.105571         2.912363
 C        -0.282120         1.569268         2.158515
 C        -2.574343         1.140937         2.425797
 C        -1.956289        -0.079278         1.742484
 H         0.267651         0.310784        -0.471194
 H        -0.832953         2.628919        -0.103921
 H        -1.930167         1.325813        -0.667252
 H        -3.513458         2.413838         0.805763
 H        -1.221280         2.459849         3.995924
 H         0.254105         2.446290         1.686465
 H         0.275847         0.998494         2.860559
 H        -3.458511         1.053924         2.977103
 H        -1.636610        -0.790987         2.581221
 H        -2.528175        -0.801473         1.147833
