19
Iteration:   967
 O         0.127142        -0.035958         0.316359
 C        -0.824004         0.734756         1.081936
 C        -1.639067         1.751793         0.217852
 C        -2.602612         2.265125         1.225741
 O        -1.984751         3.193317         2.157618
 C        -1.506471         2.060436         2.970208
 C        -0.212033         1.521277         2.334895
 C        -2.645004         1.201254         2.315449
 C        -1.951349        -0.115887         1.706166
 H         0.774825         0.664641         0.115058
 H        -0.947324         2.505347        -0.196643
 H        -2.027375         1.201716        -0.633444
 H        -3.597371         2.603006         0.790394
 H        -1.418114         2.113348         4.064980
 H         0.412121         2.423772         2.087505
 H         0.328973         0.653278         2.890802
 H        -3.623807         0.971243         2.794501
 H        -1.403506        -0.818975         2.414373
 H        -2.641235        -0.580885         0.989292
