19
Iteration:  1886charge 0 multiplicity 1
 O         0.057912        -0.026667         0.321059
 C        -0.764241         0.813037         1.037866
 C        -1.667176         1.683335         0.182180
 C        -2.629569         2.203995         1.270404
 O        -2.116825         3.169011         2.112035
 C        -1.483192         2.174635         2.938314
 C        -0.180014         1.537460         2.261826
 C        -2.496581         1.169405         2.401594
 C        -1.876106        -0.051683         1.761325
 H         0.342046        -0.772017         0.905059
 H        -1.039682         2.552309        -0.185602
 H        -2.147937         1.163971        -0.598764
 H        -3.591936         2.472831         0.749218
 H        -1.362163         2.473280         3.983260
 H         0.501898         2.382733         1.938010
 H         0.431439         0.791063         2.857514
 H        -3.368536         1.016056         2.934020
 H        -1.667796        -0.955021         2.475514
 H        -2.424892        -0.478182         0.892517
