19
Iteration:  2303
 O         0.060227        -0.162687         0.361535
 C        -0.799961         0.775112         1.031860
 C        -1.714522         1.792400         0.153181
 C        -2.619712         2.204399         1.270933
 O        -2.079314         3.214029         2.153637
 C        -1.484308         2.160566         2.913460
 C        -0.192140         1.576871         2.273783
 C        -2.511701         1.142212         2.339907
 C        -1.802560        -0.114007         1.843053
 H         0.448538         0.231723        -0.435399
 H        -1.199035         2.653552        -0.218484
 H        -2.232761         1.278109        -0.701812
 H        -3.686196         2.476655         0.927902
 H        -1.308767         2.486100         3.894456
 H         0.493239         2.366283         1.979145
 H         0.106800         0.887492         3.065158
 H        -3.558494         1.212601         2.822692
 H        -1.340524        -0.811966         2.508968
 H        -2.348585        -0.776836         1.130933
