19
Iteration:   543
 O         0.231023         0.105087         0.265083
 C        -0.879174         0.696923         1.071831
 C        -1.589221         1.836108         0.212344
 C        -2.654478         2.285274         1.132324
 O        -1.802984         3.228529         2.250778
 C        -1.561124         1.969416         2.924153
 C        -0.351468         1.294245         2.334253
 C        -2.691650         1.191900         2.321396
 C        -1.991434        -0.083587         1.710647
 H         1.098366         0.200915         0.717928
 H        -0.867339         2.749199         0.093080
 H        -1.826436         1.419831        -0.780664
 H        -3.660322         2.569831         0.757953
 H        -1.545440         2.157938         3.990809
 H         0.324092         2.115136         2.128900
 H        -0.048184         0.475316         3.064431
 H        -3.700147         1.211673         2.846506
 H        -1.753552        -0.644438         2.569100
 H        -2.670312        -0.594182         0.995338
