19
Iteration:   714
 O         0.173013        -0.025722         0.226907
 C        -0.785994         0.743618         1.079073
 C        -1.528534         1.752384         0.267362
 C        -2.658101         2.256762         1.302738
 O        -2.041017         3.287719         2.161311
 C        -1.518368         2.013991         2.936536
 C        -0.228205         1.436835         2.385356
 C        -2.637941         1.213780         2.350622
 C        -2.002260        -0.063509         1.582474
 H         0.614644        -0.597400         0.909551
 H        -0.951808         2.607707        -0.020702
 H        -1.756180         1.344712        -0.796051
 H        -3.569907         2.650634         0.743411
 H        -1.269330         2.305399         3.982438
 H         0.490861         2.213410         2.178830
 H         0.111685         0.755401         3.149026
 H        -3.499641         0.915309         2.973047
 H        -1.853330        -0.950955         2.269703
 H        -2.546662        -0.395396         0.670249
