19
Iteration:   707charge 0 multiplicity 1
 O         0.198234         0.010532         0.276618
 C        -0.784711         0.668443         1.048208
 C        -1.575440         1.809228         0.247400
 C        -2.704093         2.278626         1.278857
 O        -1.974411         3.277067         2.160442
 C        -1.476177         1.996852         2.894293
 C        -0.238723         1.437828         2.358610
 C        -2.687428         1.154334         2.324806
 C        -2.010939        -0.036465         1.673186
 H         0.897015        -0.254885         0.887385
 H        -0.805878         2.596435         0.079284
 H        -1.916990         1.375912        -0.636143
 H        -3.590677         2.609924         0.745568
 H        -1.513827         2.227495         3.945404
 H         0.582376         2.136853         2.203579
 H         0.079096         0.552281         2.980329
 H        -3.560112         0.938660         2.972335
 H        -1.823080        -0.910689         2.287890
 H        -2.627826        -0.293177         0.757575
