19
Iteration:  2308
 O         0.137217        -0.167925         0.352530
 C        -0.825187         0.769638         1.009301
 C        -1.722794         1.785071         0.148229
 C        -2.666808         2.213546         1.280534
 O        -2.070707         3.251492         2.150297
 C        -1.471836         2.162882         2.896300
 C        -0.211229         1.553428         2.297934
 C        -2.543947         1.146096         2.371363
 C        -1.801926        -0.140900         1.817917
 H         0.273830         0.124265        -0.590805
 H        -1.204047         2.706720        -0.255904
 H        -2.160178         1.153754        -0.662037
 H        -3.582517         2.633639         0.957833
 H        -1.272206         2.461324         3.999794
 H         0.513939         2.367298         2.005291
 H         0.191579         0.957634         3.142958
 H        -3.491191         1.118655         2.848630
 H        -1.333372        -0.795144         2.624922
 H        -2.504460        -0.666461         1.153645
