19
Iteration:  3974
 O         0.151665        -0.098434         0.345397
 C        -0.763224         0.757153         1.021860
 C        -1.623289         1.883970         0.184231
 C        -2.626133         2.329286         1.309094
 O        -2.066767         3.240190         2.303146
 C        -1.402984         1.994018         2.938738
 C        -0.204060         1.510240         2.192319
 C        -2.632429         1.147174         2.327615
 C        -1.942615        -0.090339         1.619342
 H        -0.370217        -0.934100         0.256780
 H        -1.197969         2.784005        -0.198807
 H        -2.245306         1.442180        -0.634174
 H        -3.530203         2.822566         1.021204
 H        -1.231601         2.045509         4.071016
 H         0.625583         2.200702         2.072058
 H         0.129395         0.706202         2.861328
 H        -3.457277         0.923888         2.971267
 H        -1.599094        -0.845572         2.412823
 H        -2.567596        -0.504736         0.799238
