19
Iteration:  3582
 O        -0.064311        -0.106575         0.255036
 C        -0.780248         0.758621         1.042585
 C        -1.515327         1.826418         0.249614
 C        -2.636530         2.236158         1.245617
 O        -2.067310         3.190032         2.209769
 C        -1.491994         2.003828         2.986580
 C        -0.169073         1.529213         2.182286
 C        -2.575925         1.160216         2.385121
 C        -1.847026        -0.023958         1.708086
 H         0.608969        -0.414563         0.865319
 H        -0.926903         2.760012         0.240782
 H        -2.099469         1.464648        -0.669389
 H        -3.530793         2.636039         0.735639
 H        -1.572641         2.324094         4.091508
 H         0.425564         2.442952         1.835968
 H         0.515786         0.899204         2.742969
 H        -3.588385         1.262271         2.863885
 H        -1.548792        -0.817741         2.467117
 H        -2.419096        -0.502236         0.912534
