19
Iteration:  3004charge 0 multiplicity 1
 O         0.219775         0.116430         0.298126
 C        -0.855313         0.702751         1.060132
 C        -1.716745         1.698589         0.250501
 C        -2.597231         2.282103         1.296439
 O        -1.853908         3.212780         2.061791
 C        -1.501579         2.045567         2.985632
 C        -0.295007         1.442705         2.280834
 C        -2.664421         1.158921         2.381288
 C        -1.944206        -0.080589         1.761324
 H         0.015142         0.017129        -0.670929
 H        -1.063960         2.484535        -0.298548
 H        -2.249772         1.198686        -0.532778
 H        -3.568974         2.661931         0.916007
 H        -1.430689         2.306580         4.020752
 H         0.435403         2.257354         2.048916
 H         0.211169         0.569327         2.864509
 H        -3.531160         1.059137         3.086400
 H        -1.692193        -0.760828         2.602755
 H        -2.503812        -0.774881         1.137183
