19
Iteration:   214charge 0 multiplicity 1
 O         0.031552        -0.127883         0.225969
 C        -0.713001         0.672313         1.108769
 C        -1.433130         1.834718         0.278302
 C        -2.555460         2.350091         1.204867
 O        -2.058414         3.249272         2.322196
 C        -1.605874         1.969671         2.992398
 C        -0.209822         1.519015         2.300956
 C        -2.668387         1.164295         2.203536
 C        -1.981675        -0.065764         1.677438
 H         0.892227         0.289641         0.160455
 H        -0.648625         2.584021        -0.001976
 H        -1.810221         1.273004        -0.542229
 H        -3.502196         2.699712         0.717550
 H        -1.675642         1.968964         4.092954
 H         0.267016         2.392829         1.816564
 H         0.337537         0.953499         3.106746
 H        -3.616674         1.121635         2.696438
 H        -1.736811        -0.892419         2.372856
 H        -2.503230        -0.388307         0.744405
