19
Iteration:   645
 O         0.195974        -0.054344         0.321897
 C        -0.769934         0.711351         1.079300
 C        -1.519229         1.816636         0.285508
 C        -2.617531         2.345593         1.235855
 O        -2.021325         3.221022         2.193407
 C        -1.448085         2.021693         2.999184
 C        -0.223788         1.433129         2.413826
 C        -2.755376         1.137697         2.227539
 C        -1.982074        -0.063251         1.597632
 H        -0.145479        -0.097003        -0.579853
 H        -0.994336         2.596168        -0.352810
 H        -2.178336         1.346207        -0.545576
 H        -3.517914         2.783395         0.848928
 H        -1.441749         2.182311         4.103043
 H         0.403359         2.355253         2.254971
 H         0.304484         0.800996         3.140463
 H        -3.635060         1.135984         2.840103
 H        -1.719281        -0.814092         2.337033
 H        -2.499426        -0.511120         0.774253
