19
Iteration:  4618
 O         0.083252        -0.060704         0.323485
 C        -0.823679         0.815357         0.979059
 C        -1.696298         1.860312         0.153158
 C        -2.622853         2.251636         1.276678
 O        -2.031876         3.199707         2.292370
 C        -1.441560         2.012255         2.922727
 C        -0.187144         1.495579         2.215473
 C        -2.611977         1.135173         2.399508
 C        -1.869749        -0.059253         1.665220
 H         0.539875        -0.543525         1.030280
 H        -0.920976         2.626608        -0.239511
 H        -1.987506         1.341038        -0.753397
 H        -3.561021         2.698687         1.055475
 H        -1.375483         2.192587         4.006729
 H         0.555269         2.238586         1.799341
 H         0.138771         0.652315         2.905614
 H        -3.376273         1.059185         3.125822
 H        -1.601245        -0.999319         2.103817
 H        -2.626217        -0.338227         0.895509
