19
Iteration:  1756charge 0 multiplicity 1
 O         0.137113         0.007241         0.246903
 C        -0.847882         0.735049         1.076149
 C        -1.552968         1.713869         0.227596
 C        -2.596441         2.198189         1.266488
 O        -2.015161         3.202336         2.132475
 C        -1.538605         2.106761         2.947377
 C        -0.231920         1.580406         2.302023
 C        -2.618183         1.163042         2.345706
 C        -1.899658        -0.072359         1.800991
 H        -0.232389        -0.864061         0.034914
 H        -0.873287         2.479488        -0.316325
 H        -1.915363         1.027229        -0.604108
 H        -3.589440         2.453617         0.781605
 H        -1.517297         2.428148         4.008261
 H         0.099165         2.487409         1.880410
 H         0.513564         1.068715         2.838631
 H        -3.419903         1.043692         3.029447
 H        -1.434618        -0.654714         2.644997
 H        -2.579440        -0.635828         1.161176
