19
Iteration:   374charge 0 multiplicity 1
 O         0.161778        -0.103474         0.338578
 C        -0.849667         0.680949         0.937198
 C        -1.531875         1.852162         0.193611
 C        -2.539936         2.372801         1.212511
 O        -1.989977         3.203947         2.348690
 C        -1.589588         1.961044         2.959533
 C        -0.227694         1.540951         2.372446
 C        -2.685141         1.151201         2.237143
 C        -1.971318        -0.086640         1.629947
 H         1.060416         0.239253         0.411229
 H        -0.973966         2.673801        -0.101620
 H        -2.066501         1.528550        -0.713643
 H        -3.366704         2.906869         0.732362
 H        -1.647498         1.937699         4.071802
 H         0.361453         2.347851         2.006361
 H         0.102577         0.643259         2.839359
 H        -3.623657         1.129431         2.836104
 H        -1.622105        -0.710008         2.477785
 H        -2.658738        -0.697303         1.063750
