19
Iteration:  3318
 O         0.130146        -0.165913         0.244426
 C        -0.758574         0.767102         1.052242
 C        -1.595408         1.799731         0.207380
 C        -2.655818         2.284798         1.310442
 O        -2.108601         3.214884         2.307057
 C        -1.445965         2.078793         2.835971
 C        -0.124218         1.507825         2.180139
 C        -2.647054         1.178447         2.317352
 C        -1.933059        -0.008219         1.754312
 H         0.495768        -0.765094         0.911293
 H        -1.078083         2.620305        -0.058209
 H        -2.302211         1.474785        -0.584197
 H        -3.590207         2.692818         0.907438
 H        -1.377281         2.333475         3.935570
 H         0.664937         2.297043         1.915722
 H         0.152968         0.633747         2.875874
 H        -3.617984         1.042827         2.904527
 H        -1.613670        -0.648646         2.602483
 H        -2.585664        -0.485065         0.992638
