19
Iteration:   406charge 0 multiplicity 1
 O         0.161423         0.065186         0.349197
 C        -0.808168         0.776323         1.035031
 C        -1.564428         1.810835         0.265924
 C        -2.590221         2.352015         1.189660
 O        -1.845846         3.144410         2.175510
 C        -1.582422         1.976360         2.944155
 C        -0.243381         1.388594         2.443677
 C        -2.748472         1.150261         2.289683
 C        -2.018265        -0.123469         1.617206
 H         0.532134         0.806051        -0.184931
 H        -1.020875         2.628290        -0.071473
 H        -1.975531         1.317832        -0.597259
 H        -3.385812         2.882087         0.667107
 H        -1.630836         2.214052         4.027838
 H         0.659461         2.014569         2.270759
 H         0.098159         0.551060         3.091010
 H        -3.693051         0.990801         2.865510
 H        -1.786623        -0.862118         2.410497
 H        -2.605767        -0.588691         0.829858
