19
Iteration:  1170charge 0 multiplicity 1
 O         0.189636         0.029563         0.356061
 C        -0.727008         0.682743         1.043781
 C        -1.550845         1.744368         0.241879
 C        -2.628905         2.218287         1.252084
 O        -2.009439         3.231445         2.126176
 C        -1.483486         2.063357         2.937281
 C        -0.266307         1.513787         2.332896
 C        -2.652208         1.113779         2.383982
 C        -2.005664         0.006466         1.669453
 H        -0.314343        -0.636765        -0.140263
 H        -0.956311         2.606402        -0.065604
 H        -1.892611         1.232234        -0.679337
 H        -3.544365         2.583019         0.840186
 H        -1.355264         2.414159         3.975808
 H         0.393268         2.377873         2.098683
 H         0.396249         0.854524         3.119584
 H        -3.684948         0.860114         2.858642
 H        -1.811805        -0.932734         2.242544
 H        -2.760653        -0.362373         0.826950
