19
Iteration:  2624charge 0 multiplicity 1
 O         0.095204         0.082337         0.290397
 C        -0.768116         0.759579         1.112900
 C        -1.655655         1.691923         0.230113
 C        -2.588660         2.267492         1.271813
 O        -1.895020         3.248650         2.143540
 C        -1.504885         1.992198         2.927286
 C        -0.194365         1.510204         2.382781
 C        -2.637405         1.176760         2.291270
 C        -1.994048        -0.124206         1.649556
 H        -0.212804        -0.820659         0.193394
 H        -1.128107         2.598260        -0.201111
 H        -2.161151         1.176271        -0.543460
 H        -3.465160         2.859573         1.003237
 H        -1.677990         2.144350         4.000145
 H         0.503756         2.311758         2.272776
 H         0.471288         0.739649         2.931808
 H        -3.488431         1.163465         2.882429
 H        -1.783171        -0.904349         2.419956
 H        -2.564150        -0.562373         0.832698
