19
Iteration:   724charge 0 multiplicity 1
 O         0.114802        -0.047852         0.227958
 C        -0.730522         0.746058         1.108646
 C        -1.473169         1.785058         0.259515
 C        -2.577046         2.274761         1.234114
 O        -2.097008         3.221098         2.192045
 C        -1.536488         2.143867         3.003318
 C        -0.228175         1.452980         2.367213
 C        -2.607529         1.133144         2.350584
 C        -1.991746        -0.057735         1.541325
 H         0.187945        -0.955475         0.581242
 H        -0.954450         2.684531        -0.026258
 H        -1.973961         1.168193        -0.622938
 H        -3.587296         2.611951         0.859649
 H        -1.526492         2.355244         4.121803
 H         0.485671         2.253556         2.118331
 H         0.268348         0.859432         3.121742
 H        -3.557597         1.155588         2.913236
 H        -1.669420        -0.919104         2.192122
 H        -2.648361        -0.437174         0.766081
