19
Iteration:  4408charge 0 multiplicity 1
 O         0.164702         0.026153         0.301403
 C        -0.848771         0.751940         0.995512
 C        -1.724834         1.738284         0.264391
 C        -2.666747         2.317313         1.252453
 O        -1.920661         3.233861         2.256312
 C        -1.427397         1.988647         2.958794
 C        -0.239312         1.464182         2.238915
 C        -2.635517         1.164101         2.321203
 C        -1.965962        -0.096326         1.668076
 H         0.950727         0.224689         0.822572
 H        -1.317984         2.560903        -0.255869
 H        -2.276582         1.111333        -0.532667
 H        -3.508378         2.964302         0.868783
 H        -1.209648         2.092906         3.996376
 H         0.436871         2.123021         1.793793
 H         0.197393         0.743404         2.826566
 H        -3.534460         0.901390         2.941554
 H        -1.475886        -0.730072         2.419375
 H        -2.493135        -0.805125         0.929152
