19
Iteration:  1147
 O         0.145808        -0.130468         0.416317
 C        -0.728756         0.819871         1.031998
 C        -1.618892         1.874712         0.133597
 C        -2.624881         2.266049         1.193432
 O        -2.029669         3.215786         2.273853
 C        -1.535027         2.059105         2.926449
 C        -0.227911         1.537844         2.292702
 C        -2.655542         1.129339         2.256779
 C        -1.841963        -0.082868         1.725491
 H        -0.553133        -0.790810         0.222280
 H        -1.002208         2.696337        -0.174580
 H        -2.265524         1.567100        -0.691820
 H        -3.511227         2.581161         0.689785
 H        -1.623457         2.157681         3.999287
 H         0.556574         2.320182         2.129699
 H         0.350708         0.647746         2.891673
 H        -3.581945         1.044609         2.860626
 H        -1.470557        -0.766328         2.508961
 H        -2.383782        -0.785700         0.926307
