19
Iteration:  2177charge 0 multiplicity 1
 O         0.081190        -0.075822         0.281420
 C        -0.806902         0.719496         1.032559
 C        -1.655439         1.618816         0.212889
 C        -2.620244         2.192234         1.221853
 O        -2.182981         3.213118         2.165989
 C        -1.444316         2.171555         2.879254
 C        -0.158958         1.596346         2.191841
 C        -2.514673         1.192199         2.420023
 C        -1.898140        -0.070746         1.881914
 H         0.804816         0.472397        -0.093395
 H        -1.050881         2.379681        -0.298463
 H        -2.062134         1.062518        -0.589552
 H        -3.596824         2.542301         1.010822
 H        -1.161031         2.463460         3.942940
 H         0.644318         2.355633         1.857775
 H         0.494102         0.915431         2.881032
 H        -3.473316         1.118108         2.995511
 H        -1.535099        -0.619286         2.783328
 H        -2.689542        -0.648929         1.390533
