19
Iteration:  2964charge 0 multiplicity 1
 O         0.153991         0.077963         0.309367
 C        -0.841157         0.699113         1.030613
 C        -1.622678         1.730764         0.268154
 C        -2.649520         2.273031         1.328854
 O        -1.996354         3.243091         2.138808
 C        -1.420535         2.070615         2.898385
 C        -0.173265         1.453250         2.269701
 C        -2.613767         1.155653         2.336751
 C        -1.962009        -0.077952         1.734718
 H        -0.139242        -0.827947         0.205535
 H        -0.975092         2.601365        -0.145421
 H        -2.295537         1.261737        -0.499018
 H        -3.638355         2.687092         0.834503
 H        -1.474543         2.315756         4.006523
 H         0.477049         2.236185         1.957377
 H         0.159437         0.676665         2.907736
 H        -3.528639         0.951306         2.931070
 H        -1.579862        -0.856668         2.463832
 H        -2.553150        -0.545625         0.886356
