19
Iteration:   979charge 0 multiplicity 1
 O         0.087302        -0.059541         0.416864
 C        -0.836767         0.785850         0.964088
 C        -1.567576         1.832635         0.165435
 C        -2.648158         2.226326         1.240306
 O        -2.010713         3.206963         2.175613
 C        -1.481272         2.058475         2.935873
 C        -0.278933         1.462794         2.274892
 C        -2.599927         1.070548         2.344974
 C        -1.905571        -0.041402         1.707921
 H         1.003433         0.237776         0.257002
 H        -1.086541         2.807394        -0.019634
 H        -2.117229         1.483687        -0.680713
 H        -3.533392         2.760962         0.805303
 H        -1.476800         2.421407         3.969829
 H         0.589542         2.141465         2.012988
 H         0.219670         0.781353         3.068430
 H        -3.456312         1.090307         3.017675
 H        -1.457793        -0.729176         2.468063
 H        -2.525695        -0.820599         1.143640
