19
Iteration:  3066
 O        -0.025991        -0.158657         0.236901
 C        -0.770632         0.689554         1.080646
 C        -1.541921         1.800811         0.231727
 C        -2.616491         2.283946         1.262205
 O        -2.049534         3.241232         2.221299
 C        -1.469006         2.125020         2.917658
 C        -0.211736         1.670461         2.204345
 C        -2.583019         1.068336         2.412337
 C        -1.944173        -0.166042         1.727014
 H         0.899592         0.159254         0.441824
 H        -0.804865         2.472143         0.061480
 H        -1.998731         1.516982        -0.786413
 H        -3.503569         2.677896         0.891960
 H        -1.473688         2.302905         4.001691
 H         0.509545         2.480721         1.830902
 H         0.552048         1.225239         2.781007
 H        -3.384262         0.912078         3.125420
 H        -1.763385        -0.909772         2.489668
 H        -2.618741        -0.549377         0.924152
