19
Iteration:  4960
 O         0.206528         0.099246         0.385484
 C        -0.807170         0.711530         1.020477
 C        -1.765745         1.821983         0.219496
 C        -2.662058         2.332927         1.342847
 O        -1.785673         3.171308         2.141974
 C        -1.484315         1.971430         2.930082
 C        -0.257485         1.470551         2.300969
 C        -2.657687         1.133042         2.305038
 C        -1.975513        -0.147271         1.707658
 H         0.082282         0.091659        -0.583469
 H        -1.272100         2.610700        -0.271449
 H        -2.491278         1.247820        -0.482718
 H        -3.536860         2.860311         1.124335
 H        -1.482048         2.329416         3.969775
 H         0.495760         2.167967         1.850543
 H         0.430742         0.755330         2.836895
 H        -3.683831         0.929081         2.762214
 H        -1.632771        -0.852107         2.524507
 H        -2.738910        -0.716185         1.043279
