19
Iteration:  3545charge 0 multiplicity 1
 O         0.176732         0.024965         0.212568
 C        -0.818513         0.705529         1.009589
 C        -1.679703         1.691987         0.225131
 C        -2.609425         2.313313         1.270232
 O        -1.995830         3.224056         2.219741
 C        -1.497725         2.071605         2.986563
 C        -0.226835         1.433478         2.230362
 C        -2.615449         1.219973         2.357252
 C        -1.965182        -0.050280         1.776574
 H         0.756799        -0.609924         0.651671
 H        -1.045805         2.406652        -0.301963
 H        -2.257902         1.173243        -0.608603
 H        -3.545363         2.747876         0.899815
 H        -1.393261         2.191624         4.076567
 H         0.424509         2.285116         2.105289
 H         0.391131         0.705629         2.752977
 H        -3.483702         1.094082         3.011919
 H        -1.581489        -0.861249         2.331983
 H        -2.634229        -0.456534         1.017415
