19
Iteration:  4352
 O         0.021199        -0.091975         0.250238
 C        -0.777398         0.685733         1.014117
 C        -1.533264         1.851276         0.343578
 C        -2.650873         2.301348         1.285887
 O        -2.122616         3.244972         2.228581
 C        -1.521703         2.102626         2.899782
 C        -0.076482         1.451336         2.266465
 C        -2.562260         1.122607         2.381466
 C        -1.925045        -0.106262         1.703525
 H         0.424774         0.443197        -0.480870
 H        -0.957444         2.733810         0.102934
 H        -1.986233         1.446166        -0.674634
 H        -3.698150         2.640067         0.874842
 H        -1.201683         2.310814         3.899728
 H         0.647977         2.117894         1.936653
 H         0.279987         0.819419         3.022312
 H        -3.587347         0.899397         2.814235
 H        -1.621176        -0.877211         2.445794
 H        -2.547671        -0.607603         0.791658
