19
Iteration:  4380
 O        -0.008937        -0.141278         0.224269
 C        -0.772401         0.791652         0.979278
 C        -1.577436         1.809849         0.225549
 C        -2.637664         2.302801         1.229034
 O        -1.998632         3.141258         2.269128
 C        -1.542635         1.972269         2.961462
 C        -0.208866         1.603024         2.283367
 C        -2.570026         1.146553         2.395006
 C        -1.919689        -0.040142         1.729103
 H         0.919130         0.169742         0.236728
 H        -0.966149         2.695936        -0.180224
 H        -2.040395         1.386019        -0.640821
 H        -3.521414         2.799187         0.904399
 H        -1.282063         2.122758         4.055618
 H         0.291970         2.574986         1.867211
 H         0.387907         0.903851         3.030205
 H        -3.455575         0.916235         2.928159
 H        -1.400910        -0.754530         2.387159
 H        -2.504087        -0.572538         1.009379
