19
Iteration:  2288
 O        -0.044796        -0.123387         0.324789
 C        -0.808585         0.782688         1.071793
 C        -1.572915         1.727755         0.216086
 C        -2.672802         2.189908         1.229728
 O        -2.093065         3.196684         2.124049
 C        -1.470343         2.094262         2.909116
 C        -0.166568         1.612698         2.186221
 C        -2.584059         1.114479         2.425742
 C        -1.816314        -0.008273         1.799228
 H         0.833866         0.277996         0.221131
 H        -0.916150         2.559404        -0.200718
 H        -2.031882         1.186615        -0.569025
 H        -3.594753         2.535257         0.802467
 H        -1.460917         2.272351         4.041522
 H         0.625668         2.499293         1.915896
 H         0.510235         0.907145         2.754584
 H        -3.311905         0.828137         3.094140
 H        -1.339298        -0.517494         2.668004
 H        -2.452340        -0.607085         1.158679
