19
Iteration:  4154charge 0 multiplicity 1
 O         0.141216         0.017383         0.264338
 C        -0.827093         0.796530         1.058765
 C        -1.624291         1.793893         0.243024
 C        -2.656504         2.295225         1.302992
 O        -1.896843         3.136746         2.131697
 C        -1.474231         1.984600         2.997586
 C        -0.239730         1.386361         2.345911
 C        -2.638296         1.173311         2.388859
 C        -1.979532        -0.031881         1.670926
 H         0.299371         0.615434        -0.475921
 H        -0.993474         2.661343        -0.103184
 H        -2.008306         1.278888        -0.626976
 H        -3.656344         2.653388         0.868847
 H        -1.535888         2.294046         4.031739
 H         0.547320         2.123488         2.024174
 H         0.317267         0.672099         3.003464
 H        -3.600129         1.094186         2.816467
 H        -1.685081        -0.941899         2.205209
 H        -2.741652        -0.416379         0.953497
