19
Iteration:  4918charge 0 multiplicity 1
 O         0.148420        -0.051254         0.279398
 C        -0.822776         0.708747         1.039645
 C        -1.602703         1.863468         0.240425
 C        -2.595179         2.271020         1.291455
 O        -2.099198         3.195916         2.266197
 C        -1.461554         2.132143         2.924952
 C        -0.128133         1.401715         2.236162
 C        -2.581890         1.161569         2.333113
 C        -1.976048        -0.066856         1.713350
 H        -0.119042        -0.057814        -0.650563
 H        -1.041223         2.662130        -0.173241
 H        -2.226788         1.345085        -0.525852
 H        -3.515027         2.490962         0.832979
 H        -1.390716         2.206616         4.025545
 H         0.602703         2.211199         2.046792
 H         0.220332         0.771044         3.100059
 H        -3.484447         1.115127         3.024774
 H        -1.719937        -0.859109         2.407423
 H        -2.519038        -0.579389         0.963707
