19
Iteration:  1750charge 0 multiplicity 1
 O         0.159812        -0.010711         0.220421
 C        -0.792315         0.755254         1.045150
 C        -1.587830         1.675011         0.208294
 C        -2.679350         2.218707         1.241137
 O        -1.977972         3.229794         2.115562
 C        -1.524672         2.080270         2.967940
 C        -0.229673         1.607282         2.351060
 C        -2.637365         1.168012         2.353096
 C        -1.889899        -0.080757         1.822642
 H        -0.247462        -0.888955         0.173368
 H        -1.018921         2.405177        -0.276147
 H        -2.062481         1.121789        -0.617825
 H        -3.641829         2.537164         0.896611
 H        -1.483724         2.277794         4.034252
 H         0.314302         2.565171         2.044154
 H         0.497700         1.014375         3.015842
 H        -3.586379         0.973769         2.915516
 H        -1.467752        -0.699492         2.592410
 H        -2.542379        -0.609953         1.095711
