19
Iteration:  3639charge 0 multiplicity 1
 O         0.139362         0.226187         0.266649
 C        -0.861466         0.773277         1.041186
 C        -1.644326         1.644673         0.156477
 C        -2.674024         2.285979         1.288096
 O        -1.819773         3.125567         2.114584
 C        -1.437384         2.020818         2.935801
 C        -0.224835         1.466233         2.303518
 C        -2.650927         1.118605         2.428830
 C        -2.051680        -0.071880         1.779930
 H         0.609280        -0.558759         0.630564
 H        -1.128840         2.464466        -0.507962
 H        -2.238886         1.047190        -0.551534
 H        -3.553092         2.843894         0.859930
 H        -1.370396         2.426203         3.959928
 H         0.448232         2.258429         1.986410
 H         0.388886         0.699315         2.885722
 H        -3.582683         1.032240         2.944159
 H        -1.844357        -0.871009         2.612971
 H        -2.728230        -0.533806         0.996553
