19
Iteration:  1982charge 0 multiplicity 1
 O         0.027229        -0.002648         0.307486
 C        -0.762576         0.764809         1.088994
 C        -1.709208         1.672534         0.286531
 C        -2.721526         2.158790         1.285098
 O        -1.878039         3.188622         1.981130
 C        -1.468166         2.140767         2.864990
 C        -0.248327         1.584268         2.303656
 C        -2.645546         1.073802         2.422573
 C        -1.859061        -0.092144         1.777606
 H         0.880447         0.429552         0.068449
 H        -1.131525         2.657706        -0.113135
 H        -2.053065         1.064069        -0.578610
 H        -3.617655         2.622843         0.897680
 H        -1.269867         2.666434         3.873269
 H         0.291439         2.642714         2.121612
 H         0.493098         0.975257         2.939445
 H        -3.470554         0.902005         3.150471
 H        -1.418003        -0.645050         2.627711
 H        -2.551451        -0.651868         1.160689
