19
Iteration:  2352
 O         0.158178         0.187720         0.340283
 C        -0.887155         0.696213         1.107269
 C        -1.684632         1.680363         0.109389
 C        -2.689006         2.233085         1.170150
 O        -1.901828         3.204652         2.114936
 C        -1.393189         2.116569         2.964607
 C        -0.172709         1.562245         2.280291
 C        -2.585328         1.104065         2.395484
 C        -2.059635        -0.177394         1.821529
 H         0.160042        -0.796805         0.346760
 H        -1.031926         2.499040        -0.403476
 H        -2.243224         1.096870        -0.667173
 H        -3.608823         2.587239         0.820306
 H        -1.355356         2.425499         4.101623
 H         0.323683         2.399372         1.758748
 H         0.433976         0.871389         2.851100
 H        -3.365198         1.010806         3.066703
 H        -1.477197        -0.837398         2.568595
 H        -2.701970        -0.823757         1.213439
