19
Iteration:  1546charge 0 multiplicity 1
 O         0.151352        -0.011656         0.368360
 C        -0.774537         0.748427         1.168127
 C        -1.658633         1.816718         0.204275
 C        -2.715091         2.186326         1.245358
 O        -1.987928         3.183729         2.113082
 C        -1.475614         2.071546         2.934954
 C        -0.136321         1.590714         2.338938
 C        -2.560453         1.109166         2.268316
 C        -1.996012        -0.067921         1.680742
 H        -0.157808        -0.916688         0.441047
 H        -0.996130         2.768502        -0.081214
 H        -1.879315         1.303124        -0.736284
 H        -3.747651         2.550608         0.931700
 H        -1.490510         2.315279         4.027131
 H         0.521648         2.411539         1.872766
 H         0.417868         0.907695         3.012707
 H        -3.520978         1.023584         2.760435
 H        -1.778575        -0.986207         2.233796
 H        -2.606411        -0.306117         0.873739
