19
Iteration:   817
 O         0.153898         0.046011         0.288082
 C        -0.813986         0.745314         1.070652
 C        -1.635587         1.770531         0.246707
 C        -2.654170         2.265466         1.279422
 O        -1.914199         3.182606         2.046663
 C        -1.514616         2.030158         2.924665
 C        -0.243244         1.424042         2.425806
 C        -2.661941         1.148905         2.340388
 C        -1.997186        -0.069657         1.712982
 H         1.052381         0.415267         0.369054
 H        -1.041527         2.736669        -0.055782
 H        -1.975076         1.166200        -0.731973
 H        -3.520325         2.753654         0.867339
 H        -1.439200         2.467732         3.907241
 H         0.658795         2.073248         2.329783
 H         0.080878         0.559041         3.047217
 H        -3.578791         1.028755         2.900136
 H        -1.722941        -0.909490         2.376873
 H        -2.531096        -0.446482         0.748975
