19
Iteration:  3141
 O         0.134448         0.170529         0.278344
 C        -0.834094         0.717571         1.117642
 C        -1.690142         1.669339         0.271455
 C        -2.638711         2.335043         1.240329
 O        -1.930702         3.221479         2.079022
 C        -1.396219         2.023595         2.907008
 C        -0.173662         1.482503         2.217457
 C        -2.698903         1.096160         2.430418
 C        -1.995182        -0.087980         1.766953
 H         0.365243        -0.725873         0.511523
 H        -1.024960         2.358937        -0.204925
 H        -1.967452         0.978912        -0.580356
 H        -3.631646         2.745361         0.905013
 H        -1.443508         2.323489         3.982663
 H         0.583103         2.210646         1.893947
 H         0.395927         0.822804         2.857327
 H        -3.449086         0.927164         3.170554
 H        -1.641287        -0.902445         2.384421
 H        -2.750469        -0.552211         1.067805
