19
Iteration:  4503charge 0 multiplicity 1
 O         0.117800        -0.038912         0.278432
 C        -0.742422         0.770468         1.022873
 C        -1.587338         1.811586         0.157960
 C        -2.599852         2.324588         1.276239
 O        -2.105023         3.204807         2.327775
 C        -1.451065         1.993693         2.997401
 C        -0.215089         1.545094         2.120784
 C        -2.577255         1.114683         2.364509
 C        -1.979698        -0.040239         1.725870
 H         0.013457        -0.977175         0.518556
 H        -0.870515         2.516128        -0.222786
 H        -2.034713         1.343512        -0.744869
 H        -3.501528         2.611144         0.684416
 H        -1.273177         2.079706         4.087792
 H         0.347849         2.424660         1.855836
 H         0.294634         0.769875         2.875483
 H        -3.497992         0.954942         3.004671
 H        -1.623336        -0.848718         2.347180
 H        -2.654813        -0.478018         1.035280
