19
Iteration:  4643charge 0 multiplicity 1
 O         0.122225        -0.041151         0.241488
 C        -0.808412         0.772253         0.976297
 C        -1.617851         1.817186         0.253031
 C        -2.628199         2.277756         1.339186
 O        -2.062395         3.203617         2.274917
 C        -1.398749         2.061651         2.944934
 C        -0.196650         1.513870         2.247941
 C        -2.613221         1.122715         2.300087
 C        -1.951865        -0.054108         1.675813
 H         0.158394        -0.883807         0.738026
 H        -0.910376         2.445341        -0.238185
 H        -2.132792         1.293900        -0.558871
 H        -3.554395         2.663057         0.991430
 H        -1.325234         2.363671         4.032297
 H         0.394801         2.402401         1.866226
 H         0.301295         0.804845         2.883616
 H        -3.490217         0.868481         2.924840
 H        -1.652854        -0.838039         2.418623
 H        -2.594143        -0.567500         0.955235
