19
Iteration:  2249
 O         0.220255         0.086010         0.301112
 C        -0.883017         0.690601         1.005124
 C        -1.712985         1.603336         0.207044
 C        -2.652078         2.242381         1.326098
 O        -2.041821         3.279316         2.112355
 C        -1.437772         2.155380         2.918511
 C        -0.230155         1.554138         2.190395
 C        -2.507188         1.127435         2.416484
 C        -1.932775        -0.095851         1.813843
 H         0.196668        -0.799746         0.711214
 H        -1.176639         2.340057        -0.387838
 H        -2.310857         0.971059        -0.603295
 H        -3.592340         2.581496         0.775936
 H        -1.346370         2.417664         3.938056
 H         0.474002         2.234896         1.824545
 H         0.311137         0.894480         2.870210
 H        -3.436327         0.952003         3.089204
 H        -1.429960        -0.807242         2.522396
 H        -2.697035        -0.665182         1.236001
