19
Iteration:  1246charge 0 multiplicity 1
 O         0.155173        -0.094495         0.390448
 C        -0.778719         0.708112         1.133921
 C        -1.606272         1.809712         0.210888
 C        -2.644489         2.242000         1.203587
 O        -2.012542         3.225373         2.165339
 C        -1.504929         2.033086         2.882668
 C        -0.179769         1.561201         2.370628
 C        -2.640091         1.110638         2.298293
 C        -1.972911        -0.039890         1.682078
 H        -0.011932         0.110419        -0.539726
 H        -1.008747         2.627313        -0.007345
 H        -2.132401         1.180449        -0.457832
 H        -3.510636         2.685122         0.792577
 H        -1.461263         2.266240         3.959286
 H         0.326107         2.455452         1.958010
 H         0.631365         0.994789         3.041778
 H        -3.462139         0.875475         3.053727
 H        -1.813267        -0.821994         2.410446
 H        -2.339536        -0.289188         0.643632
