19
Iteration:  2885
 O         0.212482         0.066069         0.183722
 C        -0.834841         0.677546         1.027018
 C        -1.673313         1.711899         0.264436
 C        -2.583324         2.310420         1.301407
 O        -1.981175         3.230040         2.108666
 C        -1.529350         2.062486         2.990454
 C        -0.191234         1.450475         2.306657
 C        -2.579459         1.156741         2.396718
 C        -2.008614        -0.047702         1.736082
 H         0.078325        -0.884524         0.266400
 H        -1.138303         2.660609        -0.213553
 H        -2.212286         1.305926        -0.585605
 H        -3.640683         2.632582         0.907972
 H        -1.532464         2.459735         3.998977
 H         0.514442         2.209209         2.121966
 H         0.264372         0.815769         3.043690
 H        -3.519997         0.972955         2.884742
 H        -1.523245        -0.716582         2.530067
 H        -2.610874        -0.767086         1.212630
