19
Iteration:  2959
 O         0.157331         0.029410         0.319213
 C        -0.842981         0.694410         1.022026
 C        -1.652178         1.725694         0.270180
 C        -2.670153         2.284677         1.331484
 O        -1.984250         3.263196         2.175812
 C        -1.444132         2.101595         2.883234
 C        -0.211390         1.464388         2.253276
 C        -2.616421         1.135443         2.336916
 C        -1.890063        -0.045336         1.695378
 H        -0.113881        -0.914162         0.260743
 H        -0.990982         2.514316        -0.038097
 H        -2.176665         1.408765        -0.634658
 H        -3.569112         2.662835         0.974459
 H        -1.483925         2.237850         3.928458
 H         0.577548         2.221475         1.948566
 H         0.172201         0.652612         2.960247
 H        -3.557245         0.906721         2.821888
 H        -1.503071        -0.799991         2.360108
 H        -2.619034        -0.611005         1.113062
