19
Iteration:  2888charge 0 multiplicity 1
 O         0.204472         0.052057         0.182201
 C        -0.822312         0.660851         1.028834
 C        -1.667437         1.724575         0.276443
 C        -2.574454         2.317424         1.317468
 O        -1.987066         3.256797         2.120812
 C        -1.540982         2.066444         2.964789
 C        -0.173035         1.481530         2.315651
 C        -2.596899         1.133572         2.381533
 C        -2.001268        -0.077760         1.735011
 H         0.068122        -0.907206         0.222879
 H        -1.063079         2.575562        -0.203334
 H        -2.213553         1.279544        -0.573654
 H        -3.643110         2.648889         0.932487
 H        -1.438632         2.471761         4.034217
 H         0.455145         2.333930         1.987844
 H         0.249862         0.849865         3.110259
 H        -3.554172         1.004739         2.925169
 H        -1.572549        -0.834183         2.455126
 H        -2.671055        -0.755130         1.143885
