19
Iteration:  4082charge 0 multiplicity 1
 O         0.096222        -0.122951         0.359677
 C        -0.861300         0.734830         1.024604
 C        -1.623663         1.819455         0.259510
 C        -2.621427         2.330098         1.300559
 O        -1.918492         3.185859         2.261045
 C        -1.457810         2.029113         2.992429
 C        -0.297307         1.509528         2.240173
 C        -2.584242         1.136134         2.290418
 C        -1.979502        -0.047317         1.587961
 H         0.786803         0.469172         0.004951
 H        -0.960795         2.574711        -0.069690
 H        -2.260840         1.533689        -0.670889
 H        -3.594186         2.749699         1.197563
 H        -1.189045         2.244511         4.044103
 H         0.268309         2.456392         1.970505
 H         0.386844         0.842973         2.724970
 H        -3.477482         0.813760         2.850837
 H        -1.665928        -1.012544         2.059930
 H        -2.464654        -0.545872         0.741198
