19
Iteration:  4517
 O         0.134966         0.011765         0.338892
 C        -0.896842         0.755707         1.000088
 C        -1.574575         1.815058         0.230517
 C        -2.631398         2.230419         1.281696
 O        -2.049474         3.205100         2.279669
 C        -1.419884         2.044797         2.924093
 C        -0.130233         1.536407         2.226280
 C        -2.596284         1.128449         2.375170
 C        -1.992919        -0.110526         1.614197
 H         0.020661        -0.898521         0.674401
 H        -1.088502         2.701845        -0.119851
 H        -2.184649         1.357111        -0.620323
 H        -3.647693         2.669598         1.043094
 H        -1.303444         2.280474         3.947646
 H         0.445722         2.351875         1.838245
 H         0.741030         0.799319         2.677970
 H        -3.562660         1.106398         2.949699
 H        -1.661608        -0.898874         2.244284
 H        -2.647737        -0.457498         0.772310
