19
Iteration:  2309
 O         0.153509        -0.166651         0.349880
 C        -0.826404         0.764686         1.006561
 C        -1.722231         1.778909         0.147895
 C        -2.678634         2.217962         1.280297
 O        -2.068057         3.259496         2.148354
 C        -1.468357         2.162683         2.894372
 C        -0.219437         1.547796         2.300493
 C        -2.554162         1.145731         2.381861
 C        -1.805348        -0.142453         1.810607
 H         0.234074         0.102191        -0.610252
 H        -1.197054         2.710436        -0.268839
 H        -2.137515         1.151465        -0.625339
 H        -3.571429         2.660781         0.960068
 H        -1.280623         2.446666         4.014162
 H         0.555814         2.395873         2.003422
 H         0.227834         0.956934         3.144524
 H        -3.462671         1.076310         2.872828
 H        -1.338237        -0.772206         2.632231
 H        -2.531913        -0.641868         1.168403
