19
Iteration:   149charge 0 multiplicity 1
 O         0.353915         0.193893         0.320625
 C        -0.886740         0.639652         1.062176
 C        -1.559895         1.792767         0.269807
 C        -2.572727         2.371411         1.247175
 O        -1.926312         3.225092         2.194766
 C        -1.536830         2.046189         2.971491
 C        -0.251233         1.358553         2.378445
 C        -2.704436         1.184610         2.279937
 C        -2.154189        -0.220971         1.585475
 H         0.278927        -0.711323        -0.099257
 H        -0.817517         2.617075        -0.014932
 H        -2.012418         1.390910        -0.606325
 H        -3.468261         2.867796         0.795256
 H        -1.557022         2.246897         4.060445
 H         0.749945         1.851104         2.204784
 H         0.003156         0.496985         3.133105
 H        -3.664695         1.223155         2.788236
 H        -1.873918        -1.003657         2.307918
 H        -2.906129        -0.457512         0.778280
