19
Iteration:  4386
 O        -0.002485        -0.087228         0.266378
 C        -0.762376         0.799539         0.982743
 C        -1.595920         1.800856         0.145015
 C        -2.605295         2.304171         1.269109
 O        -1.986771         3.128117         2.274215
 C        -1.563705         1.980314         2.975146
 C        -0.157394         1.552502         2.240352
 C        -2.575412         1.129350         2.360320
 C        -1.945285        -0.023662         1.761536
 H         0.929106         0.185102         0.417768
 H        -0.932147         2.494630        -0.289373
 H        -2.316558         1.446075        -0.685217
 H        -3.651406         2.728541         1.089601
 H        -1.373995         2.190366         4.002205
 H         0.316125         2.497158         2.064799
 H         0.404525         0.965745         2.847596
 H        -3.579718         0.991221         2.875409
 H        -1.452594        -0.760806         2.411025
 H        -2.483598        -0.634143         0.932013
