19
Iteration:  4986
 O         0.181599         0.124776         0.268102
 C        -0.807390         0.684761         0.988244
 C        -1.631588         1.744398         0.223410
 C        -2.608937         2.228319         1.267818
 O        -1.979729         3.187437         2.242806
 C        -1.467987         2.008972         2.927655
 C        -0.247046         1.399975         2.302232
 C        -2.615134         1.243354         2.401804
 C        -1.980012        -0.017221         1.713769
 H        -0.075928        -0.432001        -0.494671
 H        -0.968983         2.623814        -0.105580
 H        -2.331967         1.335183        -0.527030
 H        -3.542021         2.732319         0.732518
 H        -1.460981         2.263723         3.996912
 H         0.645347         1.930792         2.001574
 H         0.159508         0.538312         2.903014
 H        -3.483852         1.240522         3.105292
 H        -1.693427        -0.846126         2.381897
 H        -2.602112        -0.604343         1.062189
