19
Iteration:  2297
 O        -0.019158        -0.143709         0.363279
 C        -0.760114         0.760400         1.062339
 C        -1.665489         1.768320         0.177938
 C        -2.617852         2.209740         1.236685
 O        -2.087158         3.186644         2.143357
 C        -1.483460         2.140851         2.915558
 C        -0.193631         1.607037         2.225430
 C        -2.526079         1.128854         2.357871
 C        -1.823371        -0.055083         1.828720
 H         0.621499         0.364721        -0.172362
 H        -1.066408         2.627030        -0.236149
 H        -2.298086         1.394630        -0.665326
 H        -3.626844         2.307292         0.928533
 H        -1.415508         2.457199         4.025667
 H         0.603491         2.375853         1.999562
 H         0.255512         0.794081         2.862004
 H        -3.425769         1.054698         2.936947
 H        -1.268519        -0.736280         2.553016
 H        -2.274816        -0.770949         1.135009
