19
Iteration:  4242
 O        -0.009911        -0.034909         0.148234
 C        -0.831541         0.784872         1.053987
 C        -1.521049         1.819561         0.363554
 C        -2.641015         2.219157         1.267717
 O        -2.056328         3.238567         2.261048
 C        -1.453274         2.115420         2.917556
 C        -0.116266         1.480385         2.304552
 C        -2.598601         1.091213         2.295820
 C        -1.948279        -0.081621         1.692458
 H         0.521059        -0.657103         0.658519
 H        -0.987077         2.760056         0.265328
 H        -1.914073         1.623015        -0.642792
 H        -3.582136         2.512783         0.692736
 H        -1.373555         2.281957         3.988812
 H         0.533716         2.164212         1.882780
 H         0.352359         0.825291         2.993122
 H        -3.505445         0.877067         2.839120
 H        -1.654387        -0.912017         2.325675
 H        -2.445082        -0.595658         0.823342
