19
Iteration:  1078
 O         0.223021         0.063654         0.400976
 C        -0.790870         0.768188         1.119179
 C        -1.724039         1.739840         0.221881
 C        -2.686494         2.256965         1.197889
 O        -1.916855         3.187492         2.048148
 C        -1.504825         2.068126         2.916634
 C        -0.232413         1.363998         2.362304
 C        -2.665566         1.161935         2.410747
 C        -1.938811        -0.052324         1.666960
 H         0.260014         0.167484        -0.557406
 H        -1.194207         2.691987        -0.056274
 H        -2.132040         1.235478        -0.661421
 H        -3.528213         2.922399         0.795582
 H        -1.408730         2.410895         3.945632
 H         0.576662         2.155221         2.365012
 H         0.159754         0.446073         3.034456
 H        -3.432529         1.013438         3.137085
 H        -1.607073        -0.871781         2.372277
 H        -2.500001        -0.588524         0.819856
