19
Iteration:  3810charge 0 multiplicity 1
 O         0.024474         0.008211         0.208241
 C        -0.791222         0.825988         1.120447
 C        -1.627714         1.765951         0.252079
 C        -2.609189         2.225458         1.227247
 O        -1.959538         3.161519         2.202934
 C        -1.456340         2.052054         2.879103
 C        -0.181118         1.470632         2.265452
 C        -2.666720         1.153653         2.352160
 C        -1.951012        -0.009395         1.750782
 H         0.745664        -0.307122         0.767949
 H        -1.166104         2.556079        -0.235091
 H        -1.982981         1.147867        -0.601308
 H        -3.479618         2.731764         0.888229
 H        -1.522595         2.057961         3.994830
 H         0.644321         2.224764         2.086985
 H         0.289455         0.558907         2.838871
 H        -3.518935         1.007823         2.985125
 H        -1.495387        -0.617680         2.536787
 H        -2.585723        -0.601791         1.110634
