19
Iteration:   292
 O         0.224766         0.209794         0.234983
 C        -0.796286         0.709501         1.098017
 C        -1.625728         1.670821         0.210853
 C        -2.550076         2.362631         1.171734
 O        -1.874141         3.181022         2.246149
 C        -1.604644         1.909821         2.981695
 C        -0.235535         1.418901         2.403882
 C        -2.721146         1.216445         2.237646
 C        -2.035394        -0.089925         1.703057
 H         0.225059        -0.752511         0.399359
 H        -0.975436         2.434446        -0.309339
 H        -2.102929         1.028814        -0.481004
 H        -3.434274         2.877479         0.767607
 H        -1.610203         2.102829         4.039863
 H         0.473330         2.222526         2.274376
 H         0.397309         0.766334         2.971362
 H        -3.648010         1.268799         2.735840
 H        -1.970148        -0.768811         2.543527
 H        -2.559446        -0.520977         0.802238
