19
Iteration:   517charge 0 multiplicity 1
 O         0.142913        -0.037189         0.312940
 C        -0.855353         0.791783         1.086926
 C        -1.536576         1.864939         0.231458
 C        -2.604719         2.316054         1.233874
 O        -1.999473         3.217890         2.226663
 C        -1.523622         2.055737         2.932169
 C        -0.164280         1.336596         2.360899
 C        -2.652753         1.111121         2.325686
 C        -2.018366        -0.063404         1.567377
 H         1.053202         0.051335         0.677374
 H        -0.895982         2.658358         0.044673
 H        -1.881950         1.376922        -0.680455
 H        -3.537039         2.570818         0.626683
 H        -1.666784         2.406312         3.971228
 H         0.625190         2.078283         2.111389
 H         0.020556         0.499954         3.105341
 H        -3.606666         1.051072         2.763201
 H        -1.810045        -1.007145         2.240668
 H        -2.756301        -0.249303         0.771760
