19
Iteration:  1493charge 0 multiplicity 1
 O         0.091819        -0.015229         0.305417
 C        -0.787838         0.734588         1.074064
 C        -1.596158         1.763204         0.215981
 C        -2.644412         2.289939         1.194743
 O        -1.976436         3.195361         2.210765
 C        -1.533313         1.974496         2.849747
 C        -0.235314         1.517107         2.342143
 C        -2.685624         1.175226         2.248190
 C        -1.894704        -0.048979         1.759153
 H         0.858125        -0.292648         0.822336
 H        -0.992147         2.611919        -0.249366
 H        -2.062393         1.252556        -0.577102
 H        -3.582820         2.762098         0.689435
 H        -1.523903         2.204597         3.948554
 H         0.453328         2.440782         2.163246
 H         0.287764         0.737099         3.027014
 H        -3.524750         1.213997         2.968368
 H        -1.303693        -0.513653         2.584750
 H        -2.361481        -0.884763         1.274268
