19
Iteration:  2213
 O         0.191731         0.025857         0.355443
 C        -0.766044         0.791088         1.061266
 C        -1.797799         1.638473         0.242791
 C        -2.715134         2.231977         1.306119
 O        -1.942277         3.194632         1.973415
 C        -1.455425         2.103351         2.913117
 C        -0.163841         1.566115         2.284507
 C        -2.572309         1.117003         2.371650
 C        -1.930142        -0.071413         1.843594
 H        -0.087751        -0.311439        -0.521299
 H        -1.348388         2.632899        -0.138647
 H        -2.329202         1.051879        -0.498675
 H        -3.744477         2.553670         1.077591
 H        -1.529735         2.408669         3.977324
 H         0.426983         2.532475         1.858030
 H         0.386889         0.862855         2.909201
 H        -3.384982         0.893912         2.954262
 H        -1.325452        -0.642692         2.552774
 H        -2.666003        -0.745455         1.414576
