19
Iteration:  3133
 O         0.107659         0.211747         0.311379
 C        -0.857542         0.710018         1.160126
 C        -1.693639         1.673627         0.258875
 C        -2.628873         2.287123         1.262844
 O        -1.869585         3.241062         2.062889
 C        -1.457753         2.071606         2.911159
 C        -0.197727         1.439899         2.210945
 C        -2.597920         1.098925         2.406745
 C        -2.017402        -0.134448         1.725030
 H         0.450115        -0.667764         0.438445
 H        -1.134592         2.429526        -0.182709
 H        -2.379291         0.851922        -0.362449
 H        -3.545990         2.642051         0.936576
 H        -1.460362         2.381895         3.981833
 H         0.556092         2.298645         1.851386
 H         0.476188         0.856824         2.878800
 H        -3.515789         0.830859         3.059932
 H        -1.682419        -0.888517         2.464646
 H        -2.587702        -0.447519         0.838375
