19
Iteration:  1284charge 0 multiplicity 1
 O         0.228236        -0.101131         0.397449
 C        -0.802209         0.678528         1.029629
 C        -1.543208         1.885795         0.169157
 C        -2.574023         2.286389         1.177339
 O        -2.115956         3.269311         2.221357
 C        -1.506217         2.115437         2.912641
 C        -0.307449         1.418871         2.258263
 C        -2.620645         1.141227         2.389123
 C        -1.912912        -0.107403         1.775211
 H         0.001695        -0.012901        -0.552549
 H        -0.811844         2.752726        -0.154769
 H        -1.986956         1.714120        -0.881046
 H        -3.625663         2.488498         0.695152
 H        -1.560833         2.149272         4.064767
 H         0.485029         2.133618         1.925427
 H         0.033715         0.702435         2.995647
 H        -3.526686         1.090307         2.949143
 H        -1.439518        -0.807468         2.547267
 H        -2.590755        -0.646974         1.107664
