19
Iteration:  2493
 O         0.133453         0.028827         0.242453
 C        -0.811255         0.668919         1.095330
 C        -1.599954         1.786757         0.224955
 C        -2.693951         2.240916         1.239102
 O        -1.920481         3.150948         2.104333
 C        -1.534914         2.060814         2.898888
 C        -0.208475         1.435329         2.292981
 C        -2.600714         1.222018         2.375397
 C        -2.009497        -0.067368         1.815948
 H         1.067597         0.269291         0.367310
 H        -1.020204         2.740945        -0.089657
 H        -2.168177         1.390145        -0.623139
 H        -3.636097         2.683586         0.969871
 H        -1.583678         2.311796         4.004428
 H         0.233580         2.281844         1.858756
 H         0.344080         0.742957         3.032160
 H        -3.355926         1.176477         3.066932
 H        -1.587979        -0.769572         2.569626
 H        -2.624273        -0.596371         1.102817
