19
Iteration:  2397
 O         0.039773        -0.119927         0.263417
 C        -0.769892         0.731035         1.096434
 C        -1.659831         1.712843         0.184254
 C        -2.677415         2.293992         1.263786
 O        -2.097257         3.230167         2.162321
 C        -1.486635         2.133099         2.884398
 C        -0.055639         1.532605         2.307458
 C        -2.591076         1.171768         2.388271
 C        -1.900080        -0.074109         1.746136
 H         0.960407         0.241075         0.333705
 H        -0.930864         2.494082        -0.280866
 H        -2.024396         1.088181        -0.635643
 H        -3.613063         2.665044         0.960052
 H        -1.598187         2.344565         4.018248
 H         0.630645         2.347879         1.940798
 H         0.349027         0.751969         2.911664
 H        -3.397841         1.066583         3.037831
 H        -1.690140        -0.843947         2.549872
 H        -2.515239        -0.653841         1.026570
