19
Iteration:  3536charge 0 multiplicity 1
 O         0.181047         0.107570         0.222996
 C        -0.865429         0.761112         1.026102
 C        -1.673158         1.702378         0.167440
 C        -2.555252         2.256192         1.300455
 O        -1.960504         3.247296         2.182939
 C        -1.474946         2.013599         2.961255
 C        -0.273388         1.399066         2.265453
 C        -2.595013         1.200135         2.375854
 C        -1.980240        -0.019941         1.765594
 H         0.643134        -0.597826         0.707454
 H        -1.086544         2.382941        -0.350056
 H        -2.334724         0.916581        -0.385988
 H        -3.539460         2.404784         0.920101
 H        -1.231593         2.250100         4.064708
 H         0.525941         2.114402         1.957541
 H         0.175648         0.637931         2.826228
 H        -3.599488         0.939775         2.781277
 H        -1.758773        -0.678150         2.568131
 H        -2.737969        -0.503516         1.189454
