19
Iteration:  1202
 O         0.281565         0.142937         0.408627
 C        -0.802496         0.645747         1.034902
 C        -1.650575         1.725177         0.167990
 C        -2.672289         2.372344         1.220889
 O        -1.970140         3.218351         2.124347
 C        -1.447663         2.016942         2.902096
 C        -0.276810         1.356607         2.316296
 C        -2.654355         1.175402         2.329355
 C        -2.006668        -0.099822         1.787952
 H         0.139641         0.109989        -0.549786
 H        -0.944417         2.453167        -0.144590
 H        -2.182965         1.217613        -0.623232
 H        -3.571387         2.773163         0.804805
 H        -1.447319         2.285043         3.962239
 H         0.487321         2.120126         2.060182
 H         0.213078         0.595663         3.095384
 H        -3.587246         0.971345         2.904188
 H        -1.551550        -0.594196         2.650302
 H        -2.828254        -0.735180         1.326286
