19
Iteration:  2810charge 0 multiplicity 1
 O         0.043462        -0.120438         0.307179
 C        -0.812957         0.759179         0.984918
 C        -1.540283         1.830932         0.189518
 C        -2.589783         2.343574         1.235689
 O        -2.121670         3.213397         2.287847
 C        -1.463064         2.041076         2.908626
 C        -0.176246         1.511611         2.182644
 C        -2.600799         1.125124         2.325642
 C        -1.978305        -0.109900         1.811372
 H         0.986433         0.137334         0.436589
 H        -0.779227         2.574369        -0.306478
 H        -2.154871         1.399653        -0.596976
 H        -3.492102         2.848059         0.618625
 H        -1.334548         2.226678         4.018651
 H         0.669540         2.091683         1.945900
 H         0.322284         0.765987         2.838054
 H        -3.298390         1.142061         3.139697
 H        -1.505766        -0.705274         2.659253
 H        -2.665360        -0.708991         1.190157
