19
Iteration:  1619
 O         0.197808        -0.023258         0.419842
 C        -0.787490         0.668082         1.111592
 C        -1.611196         1.727395         0.285091
 C        -2.694437         2.207029         1.268252
 O        -1.972785         3.205786         2.150676
 C        -1.508890         2.091697         2.866034
 C        -0.193189         1.564576         2.179244
 C        -2.640013         1.162759         2.367104
 C        -1.983484        -0.049800         1.713725
 H         0.288020         0.242849        -0.509404
 H        -0.940456         2.484658        -0.003216
 H        -1.995385         1.230223        -0.611218
 H        -3.664800         2.493852         0.962146
 H        -1.275496         2.328629         3.888097
 H         0.386546         2.404772         1.811281
 H         0.305337         1.044466         2.964898
 H        -3.586765         0.992747         2.826077
 H        -1.831643        -0.967882         2.339023
 H        -2.685122        -0.357105         0.846043
