19
Iteration:   855charge 0 multiplicity 1
 O         0.102430        -0.043468         0.232024
 C        -0.829103         0.741571         1.072225
 C        -1.474502         1.729919         0.165575
 C        -2.505746         2.319332         1.276989
 O        -2.087677         3.179547         2.270833
 C        -1.536000         2.041912         2.992789
 C        -0.226588         1.564140         2.220773
 C        -2.686040         1.205060         2.249109
 C        -1.915079        -0.113707         1.753700
 H         0.605133        -0.505534         0.951261
 H        -0.889438         2.474080        -0.270255
 H        -2.106761         1.388021        -0.567645
 H        -3.401232         2.736121         0.748518
 H        -1.614529         2.100359         4.099760
 H         0.316254         2.489815         2.004104
 H         0.302055         0.866029         2.906068
 H        -3.636136         1.105490         2.824158
 H        -1.688288        -0.808709         2.567322
 H        -2.476187        -0.599238         1.037990
