19
Iteration:  2492
 O         0.138665         0.031074         0.234465
 C        -0.810427         0.661403         1.101742
 C        -1.604683         1.781293         0.221631
 C        -2.688684         2.242152         1.233806
 O        -1.919797         3.153371         2.101680
 C        -1.542560         2.063614         2.909522
 C        -0.219501         1.438410         2.293612
 C        -2.589938         1.220604         2.382944
 C        -2.007837        -0.060898         1.812741
 H         1.070571         0.216433         0.398115
 H        -1.057564         2.711296        -0.097807
 H        -2.182665         1.408377        -0.626259
 H        -3.653041         2.717620         0.964667
 H        -1.551256         2.306407         3.980037
 H         0.238051         2.314045         1.905832
 H         0.367361         0.708668         3.023886
 H        -3.379363         1.165298         3.081264
 H        -1.597652        -0.784740         2.541150
 H        -2.621100        -0.596821         1.097512
