19
Iteration:  3791charge 0 multiplicity 1
 O         0.098605         0.177392         0.210126
 C        -0.869180         0.657792         1.081226
 C        -1.653572         1.758102         0.217868
 C        -2.662481         2.284850         1.278144
 O        -1.859269         3.216621         2.043812
 C        -1.469555         2.036161         3.002512
 C        -0.193047         1.441120         2.311781
 C        -2.646289         1.143087         2.373561
 C        -1.958784        -0.175601         1.751025
 H         0.599624        -0.509986         0.695840
 H        -0.858166         2.567799        -0.103989
 H        -2.156379         1.233430        -0.591221
 H        -3.652612         2.788337         1.098728
 H        -1.464727         2.415914         4.069098
 H         0.356321         2.282368         1.979895
 H         0.270442         0.801956         3.081446
 H        -3.463929         1.062003         3.015313
 H        -1.763347        -0.821665         2.546937
 H        -2.686547        -0.584169         1.064849
