19
Iteration:  3849charge 0 multiplicity 1
 O         0.081471        -0.147646         0.273465
 C        -0.831015         0.720683         1.006453
 C        -1.533174         1.837788         0.293724
 C        -2.622332         2.274774         1.286811
 O        -2.030732         3.237008         2.334696
 C        -1.504351         2.082016         2.922287
 C        -0.208660         1.602873         2.121260
 C        -2.578599         1.100218         2.308222
 C        -2.006661        -0.116201         1.695855
 H         0.986797        -0.077776         0.637037
 H        -0.910112         2.724961        -0.090285
 H        -2.074012         1.343344        -0.567475
 H        -3.500736         2.799072         0.780159
 H        -1.333134         2.181944         3.976316
 H         0.525686         2.266048         1.669512
 H         0.277305         1.109686         2.916633
 H        -3.429059         1.045332         3.076542
 H        -1.717811        -0.913095         2.446285
 H        -2.653831        -0.657465         0.935504
