19
Iteration:   689charge 0 multiplicity 1
 O         0.199236         0.054932         0.374731
 C        -0.862497         0.774082         1.045966
 C        -1.623713         1.841061         0.205364
 C        -2.575464         2.327571         1.231453
 O        -1.892149         3.129135         2.162428
 C        -1.575676         2.016552         2.950321
 C        -0.254261         1.338873         2.301505
 C        -2.664183         1.199782         2.296931
 C        -2.044633        -0.146667         1.691930
 H         0.959592         0.575837         0.670652
 H        -1.064125         2.708689        -0.258750
 H        -2.092835         1.311214        -0.728706
 H        -3.432567         2.886855         0.859863
 H        -1.374096         2.301268         4.012986
 H         0.476851         2.125535         1.907078
 H         0.174577         0.568273         2.982967
 H        -3.604978         1.076768         2.790730
 H        -1.560936        -0.642857         2.530619
 H        -2.618368        -0.794703         1.081011
