19
Iteration:  2786charge 0 multiplicity 1
 O         0.033184        -0.208934         0.343387
 C        -0.729711         0.783224         1.055237
 C        -1.614315         1.874384         0.230406
 C        -2.653468         2.259769         1.296652
 O        -1.988949         3.262431         2.201844
 C        -1.516668         2.044951         2.902284
 C        -0.217367         1.512941         2.239672
 C        -2.635806         1.099451         2.340765
 C        -1.921915        -0.048923         1.708114
 H         0.764636         0.129048        -0.222208
 H        -0.925969         2.771221         0.137753
 H        -1.887572         1.529178        -0.784440
 H        -3.650108         2.738573         0.933115
 H        -1.362063         2.180933         3.958482
 H         0.454846         2.257036         1.940590
 H         0.442653         0.886281         2.787918
 H        -3.532059         0.934014         2.920599
 H        -1.524746        -0.701572         2.529750
 H        -2.452197        -0.615128         0.926997
