19
Iteration:  2459
 O         0.127202         0.078524         0.347749
 C        -0.795926         0.733109         1.115122
 C        -1.687252         1.698274         0.168486
 C        -2.635934         2.274275         1.273704
 O        -1.967678         3.219441         2.179570
 C        -1.472184         2.113909         2.890117
 C        -0.207196         1.481605         2.286325
 C        -2.581834         1.145218         2.318189
 C        -1.938850        -0.069140         1.679197
 H        -0.022155        -0.887052         0.515451
 H        -1.311823         2.412102        -0.594406
 H        -2.385357         1.032265        -0.386091
 H        -3.616479         2.703993         0.965648
 H        -1.419969         2.236862         3.966235
 H         0.610222         2.118869         2.148668
 H         0.367665         0.696358         2.885775
 H        -3.430897         1.103670         2.982920
 H        -1.478235        -0.707963         2.462332
 H        -2.458975        -0.709930         0.966706
