19
Iteration:  4381charge 0 multiplicity 1
 O        -0.009126        -0.133422         0.230913
 C        -0.767533         0.794729         0.974650
 C        -1.579458         1.804777         0.214580
 C        -2.633696         2.304055         1.231556
 O        -1.996490         3.136341         2.269913
 C        -1.553894         1.968841         2.962283
 C        -0.199444         1.599989         2.277888
 C        -2.564833         1.148720         2.394577
 C        -1.928805        -0.038828         1.734794
 H         0.910347         0.174453         0.270014
 H        -0.946620         2.674853        -0.208369
 H        -2.086030         1.410347        -0.643663
 H        -3.549954         2.799536         0.946234
 H        -1.277112         2.133173         4.038268
 H         0.277441         2.554027         1.888154
 H         0.394651         0.894157         3.029437
 H        -3.460098         0.921264         2.907854
 H        -1.404881        -0.755420         2.383354
 H        -2.472895        -0.567056         1.017208
