19
Iteration:  2724charge 0 multiplicity 1
 O         0.261109         0.012288         0.299980
 C        -0.812332         0.725738         1.039032
 C        -1.724613         1.772910         0.223700
 C        -2.616779         2.407791         1.243051
 O        -1.902343         3.129791         2.120568
 C        -1.508059         2.025124         2.919760
 C        -0.271227         1.357987         2.314762
 C        -2.671611         1.150083         2.345655
 C        -1.980640        -0.060086         1.793355
 H         0.261673         0.337200        -0.638110
 H        -0.990609         2.634812        -0.052135
 H        -2.253104         1.490256        -0.649448
 H        -3.556682         2.915815         0.894509
 H        -1.426485         2.406625         4.011565
 H         0.352324         2.210480         1.928495
 H         0.181137         0.724774         3.218466
 H        -3.512284         1.210958         3.034052
 H        -1.550558        -0.630601         2.659451
 H        -2.643352        -0.854109         1.435528
