19
Iteration:   857charge 0 multiplicity 1
 O         0.104028        -0.048782         0.233295
 C        -0.810075         0.744200         1.072107
 C        -1.471731         1.723800         0.169709
 C        -2.511323         2.317518         1.268022
 O        -2.093153         3.178625         2.282298
 C        -1.530286         2.049082         2.994598
 C        -0.230299         1.579861         2.221473
 C        -2.684766         1.205894         2.263239
 C        -1.926860        -0.114168         1.734619
 H         0.538396        -0.533281         0.958462
 H        -0.841565         2.418532        -0.311602
 H        -2.108612         1.373052        -0.561885
 H        -3.418828         2.719123         0.740756
 H        -1.615049         2.058573         4.069058
 H         0.315814         2.462683         2.007135
 H         0.308883         0.918447         2.887871
 H        -3.611901         1.163356         2.877583
 H        -1.683649        -0.826955         2.519080
 H        -2.503053        -0.622139         1.000777
