19
Iteration:  1040charge 0 multiplicity 1
 O         0.109075        -0.021701         0.328221
 C        -0.812472         0.743273         1.049557
 C        -1.589677         1.663377         0.204658
 C        -2.563238         2.338281         1.171900
 O        -1.976925         3.207659         2.215767
 C        -1.545436         2.013663         2.966114
 C        -0.255595         1.526505         2.313666
 C        -2.665244         1.171712         2.351486
 C        -1.911373        -0.120401         1.760897
 H         0.502662         0.677899        -0.245960
 H        -0.959204         2.496532        -0.143520
 H        -2.074308         1.147462        -0.689624
 H        -3.348623         2.674659         0.533432
 H        -1.463012         2.243090         4.051456
 H         0.237603         2.367593         1.898210
 H         0.323774         0.951125         2.901917
 H        -3.679881         1.012794         2.815884
 H        -1.483176        -0.758630         2.510026
 H        -2.482998        -0.548789         0.978472
