19
Iteration:  2841charge 0 multiplicity 1
 O         0.119160         0.055772         0.231112
 C        -0.844499         0.700932         1.050636
 C        -1.688137         1.709015         0.317094
 C        -2.641267         2.235760         1.303614
 O        -1.871618         3.201948         2.094852
 C        -1.489410         2.094187         3.023133
 C        -0.222421         1.523326         2.336109
 C        -2.617244         1.158320         2.315919
 C        -1.982799        -0.069040         1.646149
 H         0.814425        -0.356591         0.761740
 H        -1.010590         2.440666        -0.276738
 H        -2.266135         1.203234        -0.467394
 H        -3.543466         2.780019         0.772072
 H        -1.526291         2.300556         4.092466
 H         0.348723         2.257351         1.848717
 H         0.450177         0.827192         2.809775
 H        -3.369359         0.978698         3.050171
 H        -1.794348        -0.886873         2.402236
 H        -2.661042        -0.611353         1.000151
