19
Iteration:  3846charge 0 multiplicity 1
 O         0.094908        -0.169213         0.253429
 C        -0.855112         0.719286         1.017053
 C        -1.563529         1.832028         0.281644
 C        -2.605627         2.282061         1.263815
 O        -2.041378         3.240850         2.338841
 C        -1.490044         2.106015         2.933064
 C        -0.226790         1.607335         2.144435
 C        -2.579818         1.101344         2.314131
 C        -1.972761        -0.130087         1.678087
 H         0.979074        -0.138762         0.623494
 H        -0.876672         2.744704        -0.025190
 H        -2.061956         1.334831        -0.532808
 H        -3.473421         2.889252         0.854518
 H        -1.373649         2.195827         4.044913
 H         0.456744         2.288215         1.651424
 H         0.308048         1.020131         3.016097
 H        -3.370361         1.050351         3.043059
 H        -1.719471        -0.835974         2.379104
 H        -2.635638        -0.633782         1.006283
