19
Iteration:  1154charge 0 multiplicity 1
 O         0.150878        -0.121736         0.378385
 C        -0.797840         0.854029         1.076881
 C        -1.555054         1.826317         0.118951
 C        -2.638931         2.276506         1.227703
 O        -2.027689         3.165626         2.205645
 C        -1.558780         2.079603         2.983093
 C        -0.211811         1.542123         2.326421
 C        -2.605445         1.154624         2.321379
 C        -1.883634        -0.084596         1.656243
 H        -0.365028        -0.881378         0.033325
 H        -0.871369         2.680870        -0.112541
 H        -2.204599         1.334936        -0.619998
 H        -3.611850         2.556480         0.684599
 H        -1.698744         2.179672         4.065157
 H         0.487674         2.342021         2.048577
 H         0.232017         0.758325         2.893605
 H        -3.434026         1.060680         2.952750
 H        -1.407115        -0.728172         2.394401
 H        -2.502697        -0.504764         0.917049
