19
Iteration:  3044charge 0 multiplicity 1
 O         0.088760        -0.219136         0.326045
 C        -0.758689         0.779420         1.021075
 C        -1.599713         1.763509         0.226411
 C        -2.635528         2.223339         1.311527
 O        -2.073035         3.206228         2.206543
 C        -1.460659         2.046649         2.977198
 C        -0.212534         1.550764         2.188165
 C        -2.577032         1.202134         2.410651
 C        -1.960432         0.021521         1.676890
 H         0.646157         0.409797        -0.134101
 H        -1.162229         2.603439        -0.157424
 H        -2.182877         1.241853        -0.602824
 H        -3.548480         2.538262         0.908342
 H        -1.279363         2.283159         4.045132
 H         0.502608         2.380558         1.951188
 H         0.509221         1.023180         2.749069
 H        -3.553136         1.103360         2.823354
 H        -1.498981        -0.720954         2.336801
 H        -2.661791        -0.432296         0.947519
