19
Iteration:  3865
 O         0.073549        -0.057242         0.315178
 C        -0.811289         0.741943         1.068395
 C        -1.590344         1.810165         0.193600
 C        -2.632554         2.288458         1.301315
 O        -2.069083         3.195008         2.223756
 C        -1.396495         1.944470         2.891251
 C        -0.122863         1.466004         2.191869
 C        -2.679846         1.181058         2.385623
 C        -1.987505        -0.004509         1.700463
 H         0.995679         0.121436         0.534825
 H        -0.891356         2.562473         0.025889
 H        -2.072849         1.418365        -0.686824
 H        -3.617599         2.586008         1.035866
 H        -1.291153         2.128982         3.999127
 H         0.216891         2.483096         1.916847
 H         0.641923         0.773032         2.664783
 H        -3.587347         1.118077         2.893987
 H        -1.635228        -0.799462         2.387935
 H        -2.614762        -0.449800         0.940042
