19
Iteration:  3046
 O         0.084852        -0.222930         0.312721
 C        -0.775328         0.768672         1.024014
 C        -1.574400         1.766267         0.235780
 C        -2.634630         2.216908         1.315520
 O        -2.070812         3.206727         2.207029
 C        -1.480339         2.050819         2.984581
 C        -0.214014         1.553499         2.175509
 C        -2.571497         1.200475         2.418925
 C        -1.968428         0.027166         1.687283
 H         0.727212         0.372463        -0.129774
 H        -1.190940         2.641844        -0.191636
 H        -2.114751         1.274182        -0.564743
 H        -3.519123         2.517331         0.877854
 H        -1.246628         2.312467         3.995789
 H         0.444635         2.436328         1.909748
 H         0.575427         1.089343         2.806630
 H        -3.600744         1.089856         2.803947
 H        -1.463408        -0.792891         2.246146
 H        -2.646396        -0.416198         0.963026
