19
Iteration:  4496
 O         0.145721        -0.073000         0.214845
 C        -0.806586         0.737782         0.989062
 C        -1.536274         1.777575         0.169201
 C        -2.599140         2.327859         1.309396
 O        -2.091123         3.181645         2.328272
 C        -1.489942         2.017995         2.968004
 C        -0.252957         1.563938         2.192433
 C        -2.583969         1.135737         2.340091
 C        -1.928248        -0.003794         1.754697
 H         0.011449        -0.991509         0.477945
 H        -0.954606         2.616991        -0.217616
 H        -2.187417         1.423568        -0.677507
 H        -3.557564         2.765709         0.892232
 H        -1.443402         1.948144         4.029586
 H         0.382349         2.322123         1.782261
 H         0.267369         0.966701         3.030244
 H        -3.434926         1.053161         3.029756
 H        -1.497891        -0.711595         2.468511
 H        -2.520311        -0.531987         0.945446
