19
Iteration:   597
 O         0.168994        -0.057252         0.313173
 C        -0.812988         0.733957         1.012679
 C        -1.490385         1.855662         0.186965
 C        -2.593740         2.345338         1.302291
 O        -2.034074         3.245510         2.259809
 C        -1.554076         1.995610         2.982146
 C        -0.191229         1.471276         2.306572
 C        -2.681372         1.102680         2.279777
 C        -1.982243        -0.056905         1.595027
 H         0.124064        -0.967544         0.706519
 H        -0.821410         2.767623         0.079960
 H        -1.656504         1.643705        -0.853379
 H        -3.555174         2.675199         0.834663
 H        -1.731768         2.247715         4.026631
 H         0.567200         2.255492         2.160227
 H         0.260749         0.561775         2.883290
 H        -3.673803         0.962683         2.813784
 H        -1.734177        -0.676670         2.458627
 H        -2.691234        -0.567905         0.860795
