19
Iteration:  2326
 O         0.276642        -0.011031         0.331390
 C        -0.759112         0.688657         1.060766
 C        -1.672206         1.641539         0.254436
 C        -2.719847         2.288218         1.305935
 O        -2.011196         3.246641         2.102958
 C        -1.514765         2.103990         2.914797
 C        -0.186278         1.525847         2.188306
 C        -2.607671         1.151349         2.436241
 C        -1.965686         0.001674         1.777550
 H        -0.154606        -0.372441        -0.493671
 H        -1.100971         2.387982        -0.215834
 H        -2.352656         1.179963        -0.544481
 H        -3.735463         2.537422         0.815786
 H        -1.416315         2.422102         3.905589
 H         0.427676         2.288826         1.847051
 H         0.233567         0.745964         2.831027
 H        -3.420284         0.941780         3.278207
 H        -1.561838        -0.746594         2.438919
 H        -2.478685        -0.682323         1.061100
