19
Iteration:  4220charge 0 multiplicity 1
 O        -0.008650        -0.060638         0.199068
 C        -0.764139         0.756208         1.063689
 C        -1.508514         1.869716         0.195402
 C        -2.659263         2.335064         1.284137
 O        -2.060755         3.165843         2.247965
 C        -1.485004         1.941556         2.939241
 C        -0.134659         1.497417         2.282630
 C        -2.641651         1.142262         2.331680
 C        -1.943031        -0.019948         1.758383
 H         0.938941        -0.255677         0.344669
 H        -0.905532         2.707660        -0.185732
 H        -1.907056         1.316856        -0.673834
 H        -3.701179         2.724819         1.002102
 H        -1.242342         2.006643         3.987379
 H         0.470906         2.308906         1.989844
 H         0.359842         0.893784         3.025620
 H        -3.586510         1.047950         2.835348
 H        -1.501315        -0.828100         2.308218
 H        -2.617494        -0.592063         1.076189
