19
Iteration:   604charge 0 multiplicity 1
 O         0.187735        -0.070700         0.317058
 C        -0.812311         0.756205         1.013368
 C        -1.453157         1.951243         0.196592
 C        -2.580083         2.294584         1.284536
 O        -2.073873         3.206950         2.225415
 C        -1.528120         1.984648         2.979953
 C        -0.267690         1.447890         2.291928
 C        -2.651938         1.140460         2.321648
 C        -2.035574        -0.046956         1.622151
 H        -0.057062        -0.966863         0.613193
 H        -0.670003         2.658105         0.221816
 H        -1.799055         1.845722        -0.867686
 H        -3.482501         2.629845         0.704781
 H        -1.336831         2.329676         4.033746
 H         0.563943         2.143395         2.138432
 H         0.211360         0.737955         2.931260
 H        -3.578475         0.956108         2.800687
 H        -1.594736        -0.813054         2.370779
 H        -2.562247        -0.752017         0.975511
