19
Iteration:  1553charge 0 multiplicity 1
 O         0.144911         0.009478         0.388878
 C        -0.800801         0.735345         1.103059
 C        -1.677251         1.829034         0.198267
 C        -2.688984         2.269301         1.219144
 O        -1.956338         3.172175         2.068651
 C        -1.517247         2.050755         2.909585
 C        -0.083205         1.568272         2.390999
 C        -2.652872         1.089960         2.329237
 C        -1.912915        -0.070515         1.695105
 H        -0.169674        -0.909484         0.330839
 H        -1.179115         2.741528        -0.021715
 H        -2.071436         1.307750        -0.728834
 H        -3.692942         2.487124         1.078621
 H        -1.593356         2.377061         3.922879
 H         0.597121         2.326008         2.141778
 H         0.450125         0.838464         2.946443
 H        -3.610550         0.942858         2.800805
 H        -1.494905        -0.919582         2.304461
 H        -2.674356        -0.477175         0.884281
