19
Iteration:  1460charge 0 multiplicity 1
 O         0.161212         0.023431         0.307734
 C        -0.828497         0.732373         1.090327
 C        -1.632192         1.708971         0.202578
 C        -2.645251         2.162467         1.234315
 O        -1.891201         3.182981         2.081431
 C        -1.506811         2.116899         2.945327
 C        -0.278741         1.488515         2.460995
 C        -2.605192         1.176279         2.381309
 C        -2.038334        -0.101919         1.614465
 H         0.972982         0.535890         0.150018
 H        -0.968673         2.586204        -0.090054
 H        -2.027236         1.225167        -0.622036
 H        -3.622196         2.618720         0.802671
 H        -1.534385         2.435969         4.040939
 H         0.426999         2.375120         2.163890
 H         0.288964         0.896955         3.263770
 H        -3.522288         1.233364         2.961041
 H        -1.579563        -0.935856         2.196387
 H        -2.762398        -0.403004         0.878103
