19
Iteration:   548
 O         0.212649         0.111657         0.245617
 C        -0.847840         0.721528         1.084158
 C        -1.597983         1.798876         0.175930
 C        -2.636268         2.278782         1.166848
 O        -1.795349         3.221038         2.272564
 C        -1.605594         1.974790         2.952730
 C        -0.322259         1.313296         2.348498
 C        -2.691917         1.215131         2.288640
 C        -2.025369        -0.102528         1.725689
 H         0.981285         0.242480         0.808178
 H        -0.879950         2.540827        -0.096439
 H        -1.847593         1.433344        -0.841614
 H        -3.502051         2.685306         0.627717
 H        -1.644306         2.147772         4.052947
 H         0.387899         2.127258         2.092351
 H         0.074994         0.564928         2.992929
 H        -3.661966         1.108995         2.724602
 H        -1.579657        -0.762996         2.561325
 H        -2.703982        -0.526418         1.001007
