19
Iteration:  2805
 O         0.003847        -0.135731         0.344548
 C        -0.837074         0.735731         0.965139
 C        -1.528184         1.856727         0.226047
 C        -2.626190         2.348540         1.221054
 O        -2.117122         3.197454         2.285770
 C        -1.434843         2.052639         2.929800
 C        -0.161497         1.477908         2.183246
 C        -2.585030         1.157413         2.266477
 C        -1.921178        -0.114546         1.792869
 H         0.854376         0.322327         0.472324
 H        -0.875529         2.570148        -0.144248
 H        -2.195050         1.426204        -0.567542
 H        -3.468361         2.667442         0.734076
 H        -1.360221         2.285182         3.963686
 H         0.662028         2.234542         1.856768
 H         0.262973         0.792589         2.926776
 H        -3.399922         1.124934         3.040058
 H        -1.414067        -0.593365         2.594605
 H        -2.565231        -0.715315         1.147603
