19
Iteration:  2526charge 0 multiplicity 1
 O         0.082653        -0.135638         0.377140
 C        -0.789008         0.752328         1.018048
 C        -1.605326         1.760192         0.196629
 C        -2.596819         2.320743         1.262213
 O        -2.023683         3.225390         2.225773
 C        -1.513350         2.108262         2.951030
 C        -0.256122         1.481087         2.274522
 C        -2.598889         1.164054         2.334171
 C        -1.870936        -0.072892         1.697456
 H         0.163644         0.161095        -0.532623
 H        -0.916607         2.518096        -0.317952
 H        -2.229273         1.255112        -0.550373
 H        -3.499203         2.693746         0.812834
 H        -1.557518         2.371513         4.030890
 H         0.471483         2.193564         1.916570
 H         0.327027         0.842280         3.054409
 H        -3.420241         1.009354         2.945832
 H        -1.491730        -0.832255         2.411084
 H        -2.454715        -0.535144         0.907736
