19
Iteration:  2377charge 0 multiplicity 1
 O         0.121974        -0.024841         0.226014
 C        -0.754328         0.755480         1.045912
 C        -1.700797         1.709066         0.262385
 C        -2.679716         2.199420         1.275643
 O        -1.932048         3.223008         2.104940
 C        -1.453283         2.102151         2.900883
 C        -0.286051         1.503895         2.280620
 C        -2.674283         1.168008         2.359425
 C        -1.846008        -0.000964         1.816327
 H         0.746360        -0.477665         0.829369
 H        -1.333142         2.614464        -0.302874
 H        -2.312831         1.093616        -0.367227
 H        -3.596534         2.586243         0.801817
 H        -1.304292         2.262165         4.018607
 H         0.440963         2.435116         2.033681
 H         0.085380         0.665265         2.945720
 H        -3.611908         0.988001         2.892043
 H        -1.311072        -0.695086         2.514120
 H        -2.534349        -0.601484         1.161938
