19
Iteration:  1459charge 0 multiplicity 1
 O         0.167504         0.019334         0.310687
 C        -0.828058         0.737766         1.081543
 C        -1.634287         1.706325         0.205992
 C        -2.644857         2.169014         1.235417
 O        -1.897615         3.187533         2.080592
 C        -1.500501         2.114328         2.935994
 C        -0.280544         1.484867         2.462139
 C        -2.603246         1.177791         2.388490
 C        -2.043357        -0.106599         1.614028
 H         0.946295         0.573431         0.147682
 H        -0.945402         2.584944        -0.079609
 H        -2.035226         1.216660        -0.638862
 H        -3.611390         2.617300         0.815425
 H        -1.530283         2.378056         4.035387
 H         0.436466         2.369010         2.153676
 H         0.255887         0.900821         3.294826
 H        -3.513894         1.225075         2.948134
 H        -1.569678        -0.909893         2.205593
 H        -2.760620        -0.392960         0.896994
