19
Iteration:  3743charge 0 multiplicity 1
 O         0.070500         0.026559         0.285363
 C        -0.825202         0.770895         1.068247
 C        -1.672376         1.760975         0.187523
 C        -2.677923         2.306646         1.262997
 O        -1.971673         3.263996         2.208548
 C        -1.471327         2.031202         2.918563
 C        -0.112584         1.444945         2.274955
 C        -2.551890         1.097670         2.288727
 C        -1.958869        -0.079581         1.749541
 H         0.436341        -0.730127         0.788320
 H        -1.178674         2.536122        -0.294446
 H        -2.282658         1.168416        -0.562068
 H        -3.658686         2.679273         0.945621
 H        -1.556473         2.276501         4.007896
 H         0.486577         2.348032         1.837831
 H         0.371733         0.669051         3.037564
 H        -3.480353         1.059703         2.977497
 H        -1.429300        -0.700518         2.511944
 H        -2.474971        -0.659424         0.962029
