19
Iteration:  3420charge 0 multiplicity 1
 O         0.035101         0.037944         0.285616
 C        -0.834058         0.744465         1.088277
 C        -1.596841         1.763420         0.188980
 C        -2.622179         2.229240         1.265713
 O        -1.952469         3.189098         2.121159
 C        -1.494465         2.010094         2.976420
 C        -0.203716         1.481367         2.296691
 C        -2.556099         1.114755         2.396997
 C        -1.960211        -0.003139         1.646741
 H         0.343466        -0.651115         0.911563
 H        -1.028902         2.684176        -0.187389
 H        -2.163257         1.201584        -0.539032
 H        -3.573062         2.697826         1.039280
 H        -1.450007         2.425608         3.955452
 H         0.374184         2.347377         1.879616
 H         0.655182         0.960828         2.869743
 H        -3.415293         1.164960         3.014532
 H        -1.625709        -0.800518         2.419777
 H        -2.657003        -0.464302         0.929772
