19
Iteration:  2189charge 0 multiplicity 1
 O         0.102905        -0.033838         0.280771
 C        -0.809264         0.674263         1.130013
 C        -1.649528         1.609091         0.205242
 C        -2.654516         2.193464         1.242691
 O        -2.051383         3.205225         2.124729
 C        -1.418932         2.194226         2.904906
 C        -0.228241         1.627114         2.152359
 C        -2.592032         1.146449         2.413871
 C        -1.887175        -0.080253         1.925100
 H         0.329752         0.642787        -0.374122
 H        -1.023184         2.494940        -0.112949
 H        -2.247470         1.183605        -0.540022
 H        -3.457342         2.467484         0.600340
 H        -1.447157         2.445641         4.021835
 H         0.504598         2.420444         1.639031
 H         0.232322         0.924912         2.942492
 H        -3.397414         1.042418         3.094117
 H        -1.434679        -0.867813         2.547835
 H        -2.438247        -0.592366         1.132251
