19
Iteration:   254charge 0 multiplicity 1
 O         0.167077         0.033651         0.346105
 C        -0.814764         0.764987         1.054290
 C        -1.589083         1.857321         0.224206
 C        -2.667513         2.264663         1.238111
 O        -1.916255         3.243329         2.204202
 C        -1.548341         1.974216         2.926308
 C        -0.290154         1.375916         2.334397
 C        -2.584894         1.208853         2.309075
 C        -1.967369        -0.102380         1.600254
 H         0.606096        -0.623979         0.953709
 H        -0.947488         2.697371         0.107582
 H        -1.924383         1.603795        -0.883834
 H        -3.633816         2.687480         0.916017
 H        -1.536199         2.123205         4.043997
 H         0.453914         2.209087         2.277726
 H         0.042920         0.408840         2.844169
 H        -3.596348         1.086583         2.830601
 H        -1.672608        -1.045590         2.124146
 H        -2.683983        -0.413263         0.864477
