19
Iteration:  3197
 O        -0.018514        -0.108265         0.266021
 C        -0.742924         0.718623         1.123422
 C        -1.598001         1.806971         0.273937
 C        -2.628604         2.263689         1.245158
 O        -2.077175         3.156839         2.257692
 C        -1.414977         2.093912         2.883604
 C        -0.125002         1.617708         2.207151
 C        -2.622860         1.134464         2.290707
 C        -1.956774        -0.044523         1.717091
 H         0.843791        -0.384591         0.671800
 H        -1.026400         2.569061        -0.107858
 H        -1.912969         1.198206        -0.639327
 H        -3.602986         2.609963         0.868119
 H        -1.320501         2.239931         4.019009
 H         0.377538         2.497827         1.698161
 H         0.343631         0.959364         2.865759
 H        -3.433298         1.122811         3.067822
 H        -1.621848        -0.752952         2.482399
 H        -2.482975        -0.647001         0.926254
