19
Iteration:  2246
 O         0.212448         0.103731         0.321353
 C        -0.857930         0.713513         1.004210
 C        -1.719812         1.570573         0.178733
 C        -2.664976         2.264560         1.309158
 O        -2.037859         3.276716         2.119029
 C        -1.428334         2.149833         2.908713
 C        -0.258900         1.511080         2.190517
 C        -2.524991         1.129384         2.446693
 C        -1.926395        -0.100742         1.814168
 H         0.114091        -0.815331         0.665288
 H        -1.201935         2.373140        -0.426227
 H        -2.218894         0.964192        -0.542117
 H        -3.598390         2.563752         0.835617
 H        -1.292220         2.478248         3.947620
 H         0.564412         2.257727         1.829312
 H         0.339984         0.904610         2.872873
 H        -3.381347         0.997814         3.031064
 H        -1.285236        -0.759661         2.400041
 H        -2.684841        -0.617690         1.237271
