19
Iteration:   150
 O         0.355768         0.189789         0.328027
 C        -0.879997         0.642304         1.053187
 C        -1.569169         1.797175         0.266712
 C        -2.580876         2.373548         1.244573
 O        -1.926161         3.223886         2.200850
 C        -1.527761         2.040665         2.960255
 C        -0.258897         1.357219         2.385001
 C        -2.698245         1.182633         2.279006
 C        -2.157883        -0.219866         1.591129
 H         0.288037        -0.685228        -0.121766
 H        -0.806249         2.626573        -0.035920
 H        -1.999372         1.408626        -0.631351
 H        -3.464286         2.865753         0.803611
 H        -1.558364         2.268221         4.028881
 H         0.744158         1.830089         2.222200
 H        -0.004348         0.522045         3.156538
 H        -3.626067         1.236200         2.798453
 H        -1.872712        -1.005206         2.299161
 H        -2.919769        -0.478848         0.788113
