19
Iteration:   738charge 0 multiplicity 1
 O         0.084787        -0.062955         0.290900
 C        -0.817755         0.729077         1.045054
 C        -1.453916         1.872415         0.237336
 C        -2.543904         2.252680         1.217463
 O        -2.088087         3.190935         2.254293
 C        -1.568848         2.047200         2.944867
 C        -0.189068         1.577266         2.361535
 C        -2.622644         1.124155         2.267510
 C        -1.906609        -0.044822         1.730071
 H        -0.409752        -0.913668         0.146319
 H        -0.734118         2.503172        -0.285541
 H        -1.965673         1.506689        -0.693569
 H        -3.399004         2.642008         0.612131
 H        -1.544274         2.273124         4.015050
 H         0.542950         2.281511         2.073112
 H         0.216301         0.817148         3.026093
 H        -3.606659         0.797976         2.691713
 H        -1.700225        -0.950609         2.355203
 H        -2.539975        -0.413425         0.822766
