19
Iteration:  1052
 O         0.173816         0.007218         0.326350
 C        -0.814956         0.710375         1.092320
 C        -1.629925         1.773991         0.182954
 C        -2.613532         2.267026         1.233479
 O        -1.919380         3.194866         2.134674
 C        -1.579605         2.051334         2.958241
 C        -0.256942         1.463381         2.323989
 C        -2.653134         1.143111         2.264943
 C        -1.936105        -0.070139         1.765854
 H         0.498757         0.488988        -0.442918
 H        -0.973839         2.534673        -0.288937
 H        -2.229905         1.227955        -0.633450
 H        -3.538378         2.855986         1.067035
 H        -1.650023         2.242775         4.070647
 H         0.436328         2.269399         2.245971
 H         0.245944         0.733081         2.868873
 H        -3.537293         1.034413         2.992466
 H        -1.555998        -0.529419         2.681297
 H        -2.381738        -0.881897         1.324515
