19
Iteration:   603charge 0 multiplicity 1
 O         0.186554        -0.070452         0.315817
 C        -0.813421         0.753639         1.015452
 C        -1.460650         1.937067         0.192973
 C        -2.582055         2.303764         1.292265
 O        -2.069560         3.213555         2.228719
 C        -1.532468         1.982408         2.980662
 C        -0.254762         1.451674         2.294278
 C        -2.657082         1.133777         2.318426
 C        -2.031274        -0.048460         1.615155
 H        -0.037242        -0.954820         0.628211
 H        -0.677893         2.674963         0.198864
 H        -1.766193         1.835551        -0.896529
 H        -3.469209         2.619692         0.721836
 H        -1.394110         2.342261         4.038771
 H         0.579403         2.150955         2.152281
 H         0.216068         0.733264         2.903387
 H        -3.583549         0.951370         2.790663
 H        -1.622020        -0.789525         2.382948
 H        -2.566756        -0.734332         0.980824
