19
Iteration:  3456charge 0 multiplicity 1
 O         0.118852        -0.131816         0.267686
 C        -0.817197         0.684555         1.021614
 C        -1.569800         1.813306         0.225838
 C        -2.595309         2.346092         1.330577
 O        -2.107826         3.279257         2.323111
 C        -1.481382         2.076253         2.885929
 C        -0.221257         1.481523         2.175810
 C        -2.607598         1.205134         2.314966
 C        -1.914891        -0.094678         1.708442
 H         0.711885        -0.676016         0.800309
 H        -0.904932         2.682388        -0.267809
 H        -2.148790         1.408587        -0.646139
 H        -3.502794         2.573439         0.729824
 H        -1.457836         2.165437         3.962302
 H         0.326404         2.277200         1.703586
 H         0.438059         0.811166         2.737992
 H        -3.473911         0.955699         2.941979
 H        -1.453033        -0.657547         2.536694
 H        -2.655389        -0.759775         1.216785
