19
Iteration:  2982charge 0 multiplicity 1
 O         0.211887         0.177060         0.221588
 C        -0.764121         0.748625         1.128648
 C        -1.660591         1.679198         0.182471
 C        -2.645402         2.230036         1.175078
 O        -1.909312         3.133489         2.144576
 C        -1.448174         2.050498         2.938277
 C        -0.165313         1.478023         2.335318
 C        -2.649686         1.177528         2.455604
 C        -2.120069        -0.076032         1.787185
 H        -0.236914        -0.544385        -0.219748
 H        -1.049451         2.517536        -0.365668
 H        -1.988753         1.047761        -0.617273
 H        -3.587759         2.695204         0.897580
 H        -1.380777         2.261997         3.973042
 H         0.448003         2.329882         1.934577
 H         0.409091         0.737468         3.021018
 H        -3.624475         1.287554         2.980653
 H        -1.870472        -0.963347         2.397418
 H        -2.936293        -0.505250         1.235211
