19
Iteration:   504
 O         0.054719        -0.095528         0.306074
 C        -0.701281         0.703672         1.070683
 C        -1.490497         1.817223         0.207455
 C        -2.596815         2.266965         1.192540
 O        -2.029873         3.234084         2.289545
 C        -1.554148         2.020152         3.010403
 C        -0.272229         1.467693         2.381048
 C        -2.612945         1.185170         2.273922
 C        -2.021304        -0.000012         1.543095
 H         0.948929         0.047326         0.632004
 H        -0.937800         2.593312        -0.271311
 H        -1.975462         1.337543        -0.655881
 H        -3.502796         2.781052         0.930592
 H        -1.368584         1.998083         4.101241
 H         0.498232         2.262076         2.189637
 H         0.267654         0.759132         2.987568
 H        -3.508249         1.008692         2.867322
 H        -1.734017        -0.997644         2.053270
 H        -2.529730        -0.256395         0.614216
