19
Iteration:  3306charge 0 multiplicity 1
 O         0.091140        -0.058222         0.260440
 C        -0.840381         0.669640         0.999000
 C        -1.575221         1.829696         0.226569
 C        -2.670240         2.346026         1.228442
 O        -2.102676         3.220983         2.258399
 C        -1.435397         2.078684         2.918035
 C        -0.222148         1.478825         2.224967
 C        -2.561021         1.170558         2.343562
 C        -1.915659        -0.058504         1.763930
 H         0.366078        -0.827404         0.775972
 H        -0.892511         2.470787        -0.165875
 H        -1.932931         1.230399        -0.639274
 H        -3.622181         2.760504         0.775183
 H        -1.167989         2.186207         4.018080
 H         0.584266         2.190846         1.870867
 H         0.433771         0.888114         3.000489
 H        -3.385143         1.091693         3.130484
 H        -1.441744        -0.753102         2.467990
 H        -2.553303        -0.733287         1.131309
