19
Iteration:  1736
 O         0.181397        -0.008604         0.266916
 C        -0.666415         0.746669         1.129130
 C        -1.838015         1.718859         0.173804
 C        -2.680269         2.289006         1.222124
 O        -1.959226         3.206720         2.096771
 C        -1.552960         2.088537         2.916853
 C        -0.146398         1.559928         2.337401
 C        -2.646542         1.116382         2.368597
 C        -1.842579        -0.043615         1.775631
 H         0.100408        -0.974668         0.452637
 H        -1.365203         2.591679        -0.310857
 H        -2.363031         1.038087        -0.604115
 H        -3.560409         2.827527         0.799080
 H        -1.541795         2.351801         3.949723
 H         0.671855         2.202518         2.298947
 H        -0.000004         0.697355         3.061516
 H        -3.507296         0.980908         2.970416
 H        -1.579905        -0.694143         2.552565
 H        -2.351539        -0.610900         1.048048
