19
Iteration:  2770
 O         0.112753        -0.155118         0.305343
 C        -0.842258         0.727290         0.996292
 C        -1.541594         1.800247         0.215423
 C        -2.649827         2.301337         1.278374
 O        -1.952169         3.138630         2.148586
 C        -1.499772         2.050533         2.974948
 C        -0.176631         1.598762         2.332761
 C        -2.624370         1.171743         2.426678
 C        -1.986698        -0.043422         1.672363
 H         0.404638         0.395179        -0.432465
 H        -1.105161         2.604128        -0.314379
 H        -2.184974         1.262880        -0.503650
 H        -3.486846         2.651011         0.808953
 H        -1.574107         2.314727         4.065614
 H         0.429822         2.592361         2.271520
 H         0.274439         0.856401         3.085296
 H        -3.512109         0.970556         3.111396
 H        -1.666097        -0.980217         2.078926
 H        -2.718875        -0.408073         0.932501
