19
Iteration:  2859
 O         0.091686         0.183719         0.302187
 C        -0.837593         0.800315         1.104975
 C        -1.699055         1.741219         0.147569
 C        -2.673543         2.297075         1.242342
 O        -1.833906         3.175307         2.111298
 C        -1.467572         1.996519         2.852688
 C        -0.194460         1.420617         2.300451
 C        -2.661427         1.096323         2.402765
 C        -1.957563        -0.108827         1.791910
 H         0.300370        -0.627299         0.774904
 H        -1.189641         2.503014        -0.323075
 H        -2.106339         1.101138        -0.673511
 H        -3.586369         2.668134         1.065230
 H        -1.279407         2.389427         3.845370
 H         0.700943         2.166364         2.252194
 H         0.179329         0.807716         3.172977
 H        -3.609129         1.110101         2.983793
 H        -1.557777        -0.937334         2.352645
 H        -2.507605        -0.554490         0.940269
