19
Iteration:  4745
 O         0.041002        -0.033500         0.379266
 C        -0.886804         0.744279         1.028300
 C        -1.542977         1.793717         0.148693
 C        -2.612880         2.306135         1.318341
 O        -2.028249         3.214065         2.293795
 C        -1.446500         1.923574         2.909163
 C        -0.171126         1.547687         2.171592
 C        -2.592186         1.134939         2.347494
 C        -1.983100        -0.084047         1.681733
 H         0.812537         0.480892         0.087622
 H        -0.935853         2.668289        -0.104715
 H        -2.007983         1.269939        -0.694924
 H        -3.584649         2.802063         0.917845
 H        -1.399861         2.056732         3.978559
 H         0.532199         2.202951         1.732796
 H         0.428429         0.994867         2.861477
 H        -3.517120         0.845857         2.900949
 H        -1.408521        -0.724982         2.408521
 H        -2.731641        -0.603244         1.011037
