19
Iteration:   672charge 0 multiplicity 1
 O         0.170278         0.063122         0.392619
 C        -0.868804         0.744478         1.033092
 C        -1.611004         1.685935         0.123385
 C        -2.561426         2.352875         1.193974
 O        -1.815972         3.213788         2.209084
 C        -1.559616         1.942569         3.042937
 C        -0.305941         1.435679         2.325909
 C        -2.731260         1.125341         2.255520
 C        -1.952288        -0.028539         1.694920
 H         0.693707         0.669672        -0.134315
 H        -0.942603         2.364976        -0.359953
 H        -2.233583         1.364532        -0.693907
 H        -3.561262         2.851731         0.993638
 H        -1.648936         1.936378         4.139525
 H         0.352355         2.271450         2.369165
 H         0.248527         0.641672         2.859766
 H        -3.691131         1.082701         2.823781
 H        -1.629835        -0.775096         2.471141
 H        -2.593876        -0.657680         0.995369
