19
Iteration:   567
 O         0.138720         0.083281         0.259339
 C        -0.821707         0.738753         1.076561
 C        -1.576903         1.729637         0.210752
 C        -2.453732         2.425155         1.226985
 O        -1.920280         3.146153         2.225333
 C        -1.550653         1.933690         3.005833
 C        -0.248207         1.469899         2.401624
 C        -2.734878         1.124912         2.251314
 C        -2.025405        -0.070045         1.609118
 H         0.952066        -0.205884         0.670468
 H        -0.981987         2.428572        -0.508518
 H        -2.277980         1.063751        -0.379099
 H        -3.350452         2.832228         0.825986
 H        -1.607413         2.206316         4.065553
 H         0.323060         2.386319         2.253918
 H         0.144968         0.657335         3.007683
 H        -3.751717         1.174146         2.740885
 H        -1.864735        -0.601056         2.498591
 H        -2.567030        -0.553888         0.806451
