19
Iteration:  3630charge 0 multiplicity 1
 O         0.157085         0.191137         0.228842
 C        -0.855670         0.694534         1.138902
 C        -1.702354         1.650448         0.220317
 C        -2.662045         2.307577         1.219707
 O        -1.868050         3.224356         2.146253
 C        -1.443266         2.065881         2.936739
 C        -0.202075         1.400539         2.252605
 C        -2.697699         1.131258         2.415971
 C        -1.999798        -0.068895         1.726949
 H         0.580800        -0.555345         0.727836
 H        -1.028994         2.445947        -0.202217
 H        -2.240930         1.000803        -0.402961
 H        -3.535020         2.897687         0.863949
 H        -1.437296         2.315131         3.957256
 H         0.472858         2.172090         1.924205
 H         0.448386         0.698193         2.941393
 H        -3.480855         0.992637         3.119753
 H        -1.401396        -0.890610         2.270186
 H        -2.675001        -0.608479         0.984676
