19
Iteration:  1489
 O         0.079609        -0.008827         0.310491
 C        -0.798832         0.795378         1.087031
 C        -1.593197         1.752530         0.234469
 C        -2.651280         2.288556         1.207143
 O        -1.956211         3.182853         2.160102
 C        -1.547951         1.971271         2.865345
 C        -0.198810         1.505275         2.336274
 C        -2.705220         1.138971         2.276193
 C        -1.899152        -0.021068         1.764661
 H         0.939970        -0.238708         0.722635
 H        -0.918474         2.535313        -0.219970
 H        -2.084672         1.163001        -0.621533
 H        -3.457169         2.786375         0.743200
 H        -1.538342         2.111612         3.936629
 H         0.462594         2.357732         2.179104
 H         0.275943         0.856882         3.060624
 H        -3.616789         1.103593         2.842272
 H        -1.317691        -0.567763         2.510501
 H        -2.421052        -0.781002         1.183849
