19
Iteration:  4892charge 0 multiplicity 1
 O         0.101333        -0.067440         0.250988
 C        -0.780359         0.674203         0.984301
 C        -1.447670         1.891347         0.266466
 C        -2.707104         2.304284         1.358396
 O        -2.061892         3.252365         2.215876
 C        -1.522850         2.077516         2.941527
 C        -0.187200         1.439833         2.168420
 C        -2.651316         1.104263         2.375528
 C        -1.895942        -0.072432         1.750847
 H        -0.322515        -0.577309        -0.446958
 H        -0.814909         2.835866         0.270840
 H        -1.764359         1.563852        -0.766261
 H        -3.652873         2.626717         0.849508
 H        -1.348507         2.136155         4.028295
 H         0.409507         2.390323         2.056822
 H         0.327190         0.983897         3.031001
 H        -3.442592         0.845845         3.048868
 H        -1.590919        -0.856628         2.518845
 H        -2.550082        -0.652892         0.919354
