19
Iteration:   804
 O         0.162004         0.052288         0.351748
 C        -0.803099         0.749042         1.122313
 C        -1.623532         1.724339         0.195783
 C        -2.624881         2.218153         1.202149
 O        -1.911698         3.197808         2.113594
 C        -1.494896         2.146220         2.998087
 C        -0.230807         1.360445         2.376100
 C        -2.628168         1.136782         2.388010
 C        -2.018699        -0.028335         1.579210
 H         0.861919         0.708803         0.146418
 H        -0.993856         2.565473        -0.315057
 H        -2.327273         1.074594        -0.643521
 H        -3.657332         2.506129         0.885641
 H        -1.487301         2.304364         4.067870
 H         0.486281         2.110976         2.145235
 H         0.108249         0.644029         3.110569
 H        -3.600088         0.912329         2.897143
 H        -1.811693        -0.938390         2.190646
 H        -2.915834        -0.287966         0.856879
