19
Iteration:  4135
 O         0.038798        -0.041680         0.221841
 C        -0.745149         0.714155         1.017054
 C        -1.535855         1.829700         0.246939
 C        -2.576516         2.283370         1.266086
 O        -1.931874         3.279665         2.236054
 C        -1.573189         2.079138         2.958697
 C        -0.263975         1.487601         2.347161
 C        -2.635599         1.091456         2.366093
 C        -1.961807        -0.165669         1.674831
 H         0.145147         0.323235        -0.664084
 H        -0.959861         2.667509         0.020843
 H        -2.182641         1.607759        -0.655608
 H        -3.534489         2.697109         0.901247
 H        -1.471146         2.188256         4.003121
 H         0.711066         2.137099         2.201223
 H         0.058060         0.727505         3.151368
 H        -3.432211         0.768487         3.027532
 H        -1.517122        -0.745974         2.447227
 H        -2.450617        -0.734589         0.845937
