19
Iteration:  4653
 O         0.154862        -0.013507         0.153800
 C        -0.782464         0.665659         1.089151
 C        -1.647169         1.787565         0.227591
 C        -2.641356         2.294120         1.291947
 O        -1.985039         3.206082         2.259528
 C        -1.527822         2.028869         2.943763
 C        -0.222162         1.546514         2.229155
 C        -2.683099         1.174704         2.375428
 C        -1.881204        -0.083106         1.702576
 H         0.209952        -0.935727         0.468625
 H        -1.044174         2.715672         0.044761
 H        -2.036899         1.340803        -0.688838
 H        -3.551216         2.685779         0.964809
 H        -1.324568         2.069826         4.066396
 H         0.583588         2.320786         1.936999
 H         0.460311         1.025124         2.929494
 H        -3.542884         1.255148         3.049245
 H        -1.674570        -0.857987         2.455532
 H        -2.601361        -0.389161         0.964739
