19
Iteration:  4527charge 0 multiplicity 1
 O         0.155070         0.017703         0.306767
 C        -0.823366         0.728763         1.045926
 C        -1.662700         1.823975         0.250341
 C        -2.675750         2.254428         1.381652
 O        -1.965770         3.163338         2.191473
 C        -1.412321         2.080648         2.940951
 C        -0.187208         1.531530         2.236306
 C        -2.589771         1.101638         2.324822
 C        -2.013098        -0.048841         1.606070
 H         0.198897        -0.907893         0.637657
 H        -1.068353         2.665331        -0.020655
 H        -2.184668         1.445688        -0.681318
 H        -3.655453         2.609243         0.913586
 H        -1.499643         2.100880         3.975252
 H         0.386421         2.227041         1.710280
 H         0.333792         0.904643         3.107480
 H        -3.394953         1.021160         3.109786
 H        -1.613221        -0.836968         2.170253
 H        -2.584765        -0.504718         0.797959
