19
Iteration:  4827
 O         0.308323         0.142149         0.337905
 C        -0.869556         0.708603         0.975552
 C        -1.697416         1.764962         0.180192
 C        -2.655484         2.317876         1.352273
 O        -1.896963         3.196476         2.172985
 C        -1.452743         1.948224         2.933934
 C        -0.264491         1.410191         2.289702
 C        -2.660123         1.248170         2.383282
 C        -2.039636        -0.132980         1.724598
 H         0.112460        -0.411487        -0.454207
 H        -0.992723         2.558638        -0.207628
 H        -2.222919         1.349546        -0.720483
 H        -3.545797         2.747007         0.970655
 H        -1.416436         2.336258         3.943032
 H         0.384735         2.289728         2.018904
 H         0.162927         0.539214         2.824582
 H        -3.456818         0.958510         3.017730
 H        -1.770993        -0.893533         2.465157
 H        -2.581506        -0.783091         1.024671
