19
Iteration:   531
 O         0.194640         0.059618         0.314531
 C        -0.799953         0.704260         1.010900
 C        -1.507912         1.890093         0.298369
 C        -2.664673         2.299350         1.273644
 O        -1.932655         3.193709         2.107256
 C        -1.493679         2.017446         2.913532
 C        -0.312444         1.314165         2.336863
 C        -2.707769         1.160173         2.290752
 C        -2.078049        -0.071422         1.662799
 H         1.005240         0.243645         0.789261
 H        -0.847596         2.806447         0.178895
 H        -1.919425         1.595634        -0.677854
 H        -3.583658         2.889188         0.954849
 H        -1.325794         2.168444         3.977350
 H         0.637599         1.851376         2.323584
 H         0.017339         0.434759         3.017292
 H        -3.538580         1.011539         3.011650
 H        -1.672021        -0.781264         2.378628
 H        -2.622447        -0.759144         0.970747
