19
Iteration:  2900charge 0 multiplicity 1
 O         0.131471         0.013200         0.214846
 C        -0.777257         0.679809         1.098546
 C        -1.584465         1.744440         0.261598
 C        -2.657991         2.261830         1.283673
 O        -1.978658         3.294007         2.241335
 C        -1.454240         2.121316         2.882300
 C        -0.246805         1.571762         2.272853
 C        -2.667204         1.129782         2.352959
 C        -1.934676        -0.195494         1.719165
 H        -0.025820        -0.959512         0.172084
 H        -0.867914         2.421380        -0.199029
 H        -2.170050         1.174142        -0.499948
 H        -3.588276         2.740376         0.810239
 H        -1.384876         2.163401         4.032904
 H         0.451951         2.385570         1.860835
 H         0.488092         1.021448         2.916426
 H        -3.550170         1.044254         3.032383
 H        -1.756051        -1.024189         2.419545
 H        -2.595093        -0.354098         0.829284
