19
Iteration:  4039charge 0 multiplicity 1
 O         0.100599         0.124333         0.163142
 C        -0.825616         0.680468         1.058716
 C        -1.654378         1.784171         0.236696
 C        -2.625612         2.290153         1.265699
 O        -1.914945         3.167149         2.187447
 C        -1.488335         1.994268         2.977753
 C        -0.230522         1.331840         2.328369
 C        -2.653523         1.195476         2.336528
 C        -1.971916        -0.015021         1.742483
 H         1.038478         0.184720         0.362215
 H        -1.011027         2.551725        -0.167530
 H        -2.016907         1.171586        -0.663106
 H        -3.405274         2.827051         0.749253
 H        -1.295542         2.234409         4.066254
 H         0.607226         1.973063         2.078730
 H         0.169996         0.651441         3.008021
 H        -3.566694         1.108272         2.931908
 H        -1.847952        -0.643563         2.721439
 H        -2.675309        -0.575627         1.068172
