19
Iteration:  1606
 O         0.274810         0.044686         0.369100
 C        -0.812603         0.685058         1.151237
 C        -1.581660         1.663115         0.280495
 C        -2.637150         2.350997         1.226275
 O        -2.048899         3.217354         2.120677
 C        -1.402400         2.079211         2.918374
 C        -0.219328         1.540664         2.247751
 C        -2.664509         1.118465         2.361009
 C        -2.101238        -0.158766         1.718245
 H        -0.028976         0.314726        -0.515216
 H        -1.105272         2.385275        -0.226881
 H        -2.133749         1.008007        -0.414562
 H        -3.434509         2.867995         0.643079
 H        -1.378311         2.338529         3.955748
 H         0.321266         2.271759         1.701688
 H         0.640341         1.005723         2.782967
 H        -3.373916         1.092374         3.192354
 H        -1.790615        -0.896838         2.450871
 H        -2.727860        -0.644335         0.886612
