19
Iteration:   663
 O         0.187816        -0.000335         0.356663
 C        -0.764096         0.792109         1.084735
 C        -1.651634         1.694868         0.181751
 C        -2.543752         2.340741         1.223543
 O        -1.831993         3.180935         2.245485
 C        -1.700773         1.986399         2.980881
 C        -0.248380         1.462461         2.336595
 C        -2.654593         1.163544         2.263953
 C        -2.001850        -0.043762         1.665153
 H         0.346861         0.483944        -0.457505
 H        -0.997314         2.457653        -0.344415
 H        -2.246134         1.171931        -0.553723
 H        -3.439814         2.906096         0.895968
 H        -1.691427         2.016011         4.057768
 H         0.450642         2.277492         2.094051
 H         0.169474         0.633452         3.009303
 H        -3.640437         0.891776         2.724925
 H        -1.677143        -0.743505         2.427151
 H        -2.606429        -0.460421         0.806733
