19
Iteration:  2400
 O         0.030627        -0.112270         0.284401
 C        -0.787357         0.700732         1.101217
 C        -1.632023         1.715717         0.167535
 C        -2.654910         2.303520         1.274550
 O        -2.114143         3.225513         2.154301
 C        -1.479211         2.134328         2.896073
 C        -0.073490         1.544646         2.295297
 C        -2.570557         1.172914         2.377413
 C        -1.891139        -0.090809         1.762616
 H         0.905360         0.317151         0.215216
 H        -0.938390         2.468617        -0.166602
 H        -2.066673         1.154298        -0.653857
 H        -3.661228         2.719469         0.926870
 H        -1.587963         2.275366         3.967610
 H         0.620704         2.401428         1.887622
 H         0.384271         0.703115         2.889556
 H        -3.481739         1.069830         3.070720
 H        -1.602495        -0.874815         2.472684
 H        -2.606507        -0.540006         0.999388
