19
Iteration:   258charge 0 multiplicity 1
 O         0.172935         0.061857         0.344903
 C        -0.817529         0.755659         1.059536
 C        -1.612792         1.819113         0.221022
 C        -2.641744         2.251028         1.252339
 O        -1.886404         3.233689         2.186712
 C        -1.544875         1.976287         2.942883
 C        -0.269273         1.402891         2.370362
 C        -2.625401         1.187094         2.322166
 C        -1.983305        -0.095618         1.556610
 H         0.459280        -0.615736         0.967820
 H        -0.968434         2.743292         0.127288
 H        -1.929218         1.514059        -0.732076
 H        -3.566894         2.739124         0.898051
 H        -1.551877         2.237545         3.989095
 H         0.389531         2.232924         2.207889
 H         0.065349         0.478623         2.771405
 H        -3.533332         1.065862         2.816754
 H        -1.734964        -1.002556         2.123089
 H        -2.697304        -0.392819         0.749871
