19
Iteration:  3426charge 0 multiplicity 1
 O         0.060204        -0.029710         0.288987
 C        -0.803832         0.750651         1.104632
 C        -1.603043         1.797366         0.194654
 C        -2.647311         2.261746         1.297687
 O        -1.956032         3.152225         2.152816
 C        -1.466829         2.010336         2.938397
 C        -0.190993         1.545587         2.257668
 C        -2.608659         1.154544         2.377620
 C        -1.959065        -0.018421         1.684149
 H         0.485436        -0.775868         0.792658
 H        -1.092861         2.682413        -0.127322
 H        -2.086628         1.338198        -0.718067
 H        -3.593825         2.662990         0.854127
 H        -1.514287         2.331276         4.027358
 H         0.416308         2.393380         1.909747
 H         0.608256         1.014357         2.733016
 H        -3.514857         0.934470         3.022240
 H        -1.739035        -0.848117         2.300881
 H        -2.705908        -0.433217         1.002402
