19
Iteration:  3491
 O         0.078768         0.061913         0.197836
 C        -0.753836         0.733161         1.040848
 C        -1.619243         1.755074         0.257351
 C        -2.654825         2.200116         1.309785
 O        -1.870647         3.210065         2.100841
 C        -1.503495         2.083673         2.949885
 C        -0.193329         1.463721         2.337513
 C        -2.687164         1.138865         2.347795
 C        -2.032942        -0.044164         1.737911
 H         0.775497        -0.488184         0.568262
 H        -1.137323         2.671878        -0.119685
 H        -2.145136         1.044508        -0.486584
 H        -3.592294         2.660370         0.979560
 H        -1.465945         2.192583         4.057857
 H         0.412796         2.333128         2.107693
 H         0.309423         0.848634         3.058513
 H        -3.519609         1.026045         3.051022
 H        -1.555644        -0.706402         2.394728
 H        -2.501790        -0.613177         0.952801
