19
Iteration:  4724charge 0 multiplicity 1
 O         0.186392        -0.045618         0.269894
 C        -0.766627         0.719381         1.005278
 C        -1.742846         1.822492         0.245571
 C        -2.645909         2.249918         1.325974
 O        -1.923535         3.175484         2.200833
 C        -1.454311         2.051005         2.979081
 C        -0.250149         1.483539         2.219637
 C        -2.643029         1.168947         2.385428
 C        -2.033916        -0.069194         1.658884
 H         1.104540         0.151715         0.511103
 H        -1.022663         2.631538        -0.033091
 H        -2.287525         1.322001        -0.561094
 H        -3.663767         2.721418         0.988981
 H        -1.465838         2.278227         4.025887
 H         0.439831         2.263753         2.056074
 H         0.404170         0.940822         2.879340
 H        -3.606445         1.073982         2.931196
 H        -1.611153        -0.876988         2.278423
 H        -2.484307        -0.420950         0.677632
