19
Iteration:  2083charge 0 multiplicity 1
 O         0.132291         0.067094         0.177722
 C        -0.757126         0.730224         1.108225
 C        -1.800984         1.624070         0.226706
 C        -2.701675         2.231103         1.250528
 O        -2.007138         3.306416         2.005767
 C        -1.508251         2.157563         2.919558
 C        -0.172205         1.493348         2.296341
 C        -2.560383         1.110413         2.445116
 C        -1.793894        -0.116852         1.892335
 H         0.290934        -0.824750         0.499867
 H        -1.362787         2.550511        -0.340359
 H        -2.271390         1.040920        -0.614085
 H        -3.662015         2.607805         0.794216
 H        -1.564408         2.560628         3.904291
 H         0.615953         2.243085         2.160022
 H         0.280432         0.879121         3.108275
 H        -3.407124         0.901043         2.995722
 H        -1.404460        -0.652182         2.760852
 H        -2.409366        -0.749974         1.244343
