19
Iteration:  3750charge 0 multiplicity 1
 O         0.126957         0.072215         0.275490
 C        -0.829773         0.756442         1.097127
 C        -1.710999         1.726744         0.121597
 C        -2.684544         2.351049         1.306649
 O        -1.999524         3.208400         2.177929
 C        -1.436140         2.032559         2.932658
 C        -0.131215         1.423920         2.316718
 C        -2.572159         1.184058         2.335706
 C        -1.970602        -0.045910         1.750983
 H         0.485753        -0.754864         0.604758
 H        -1.086258         2.493332        -0.457819
 H        -2.197653         0.978982        -0.489237
 H        -3.649058         2.661065         0.859617
 H        -1.456924         2.163933         3.980682
 H         0.648499         2.017868         1.899300
 H         0.379725         0.600511         2.737505
 H        -3.481202         0.937626         2.882488
 H        -1.550490        -0.779253         2.537327
 H        -2.535266        -0.659632         0.979029
