19
Iteration:  1266charge 0 multiplicity 1
 O         0.191193        -0.105505         0.408801
 C        -0.827485         0.729448         0.984687
 C        -1.422779         1.793075         0.266958
 C        -2.661167         2.272271         1.281409
 O        -2.158275         3.216116         2.180609
 C        -1.544759         2.116773         2.933866
 C        -0.185403         1.485947         2.214596
 C        -2.601258         1.178922         2.335913
 C        -1.979339        -0.112148         1.701283
 H         0.147345         0.073805        -0.543579
 H        -0.757019         2.669419         0.223213
 H        -1.903721         1.431472        -0.726272
 H        -3.567122         2.605263         0.794490
 H        -1.124796         2.342099         3.904634
 H         0.601473         2.175714         1.958801
 H         0.165201         0.773119         2.972990
 H        -3.517112         1.088038         2.907653
 H        -1.519877        -0.689805         2.482095
 H        -2.816394        -0.533164         1.101716
