19
Iteration:    63charge 0 multiplicity 1
 O         0.218693        -0.035774         0.411675
 C        -0.812780         0.673563         1.084257
 C        -1.466278         1.832490         0.210292
 C        -2.496425         2.336810         1.252156
 O        -2.035062         3.202495         2.284007
 C        -1.515272         2.015058         3.048610
 C        -0.179144         1.411947         2.390715
 C        -2.715390         1.139927         2.199001
 C        -2.172061        -0.078178         1.497377
 H         0.331301         0.367535        -0.451582
 H        -0.746322         2.774604        -0.022311
 H        -1.855631         1.620380        -0.781254
 H        -3.439867         2.738397         0.837401
 H        -1.436516         2.312820         4.101920
 H         0.386514         2.294578         2.018376
 H         0.489483         0.790650         3.030251
 H        -3.770133         1.090637         2.553715
 H        -2.160956        -1.093421         1.916122
 H        -2.871648        -0.269967         0.618829
