19
Iteration:  1554
 O         0.144378         0.011648         0.391589
 C        -0.802026         0.739207         1.088090
 C        -1.680014         1.823708         0.199829
 C        -2.683423         2.278748         1.217436
 O        -1.952692         3.170297         2.062709
 C        -1.523063         2.049205         2.906029
 C        -0.084409         1.556680         2.396188
 C        -2.668615         1.091722         2.343480
 C        -1.902151        -0.073583         1.693038
 H        -0.161742        -0.898218         0.306940
 H        -1.159908         2.787519        -0.042155
 H        -2.103868         1.309059        -0.720121
 H        -3.683228         2.499862         1.077271
 H        -1.605261         2.381808         3.922943
 H         0.615500         2.339284         2.175574
 H         0.437140         0.842439         2.936541
 H        -3.601363         0.925960         2.826733
 H        -1.466140        -0.896508         2.330159
 H        -2.635386        -0.504253         0.912513
