19
Iteration:   559
 O         0.149657         0.120340         0.257314
 C        -0.820258         0.730970         1.020880
 C        -1.550006         1.713475         0.163026
 C        -2.515576         2.353665         1.217543
 O        -1.869173         3.176171         2.232462
 C        -1.613258         1.987248         3.033674
 C        -0.245767         1.420357         2.393773
 C        -2.732861         1.162427         2.223461
 C        -2.066494        -0.078295         1.697310
 H         0.980022         0.069139         0.745858
 H        -0.916878         2.442200        -0.282606
 H        -2.222752         1.162056        -0.540411
 H        -3.329888         3.020589         0.917740
 H        -1.660013         2.049567         4.145327
 H         0.519844         2.215797         2.264292
 H         0.277995         0.651056         2.907581
 H        -3.670218         1.034879         2.722182
 H        -1.712913        -0.904478         2.405444
 H        -2.649578        -0.677069         1.002984
