19
Iteration:  4488charge 0 multiplicity 1
 O         0.147600        -0.081186         0.171302
 C        -0.840226         0.689875         0.972479
 C        -1.561247         1.794893         0.222149
 C        -2.615609         2.292949         1.314715
 O        -2.048470         3.202561         2.334852
 C        -1.541308         2.043986         2.905018
 C        -0.233564         1.565086         2.295225
 C        -2.636626         1.199061         2.331023
 C        -1.857152        -0.063876         1.696722
 H         0.038585        -0.989417         0.471583
 H        -0.929336         2.683540        -0.162591
 H        -2.184493         1.329593        -0.536892
 H        -3.510334         2.773598         1.026514
 H        -1.492993         2.205702         4.062061
 H         0.513687         2.406152         1.961759
 H         0.443485         1.001150         2.785530
 H        -3.522214         1.062272         2.892606
 H        -1.425679        -0.637541         2.594078
 H        -2.516564        -0.757365         1.080792
