19
Iteration:  3290charge 0 multiplicity 1
 O         0.059979         0.065422         0.203501
 C        -0.871446         0.732122         1.096587
 C        -1.562988         1.716361         0.217253
 C        -2.537711         2.224448         1.283203
 O        -1.964326         3.276213         2.149470
 C        -1.508071         2.072427         2.964988
 C        -0.222640         1.524695         2.245077
 C        -2.598733         1.123607         2.403607
 C        -1.945882        -0.159322         1.760543
 H         0.281489        -0.795956         0.544601
 H        -0.915607         2.669774        -0.106176
 H        -2.129603         1.527160        -0.682653
 H        -3.498882         2.583822         0.907149
 H        -1.542236         2.386719         3.985773
 H         0.281700         2.364354         1.833259
 H         0.311213         0.803747         2.788719
 H        -3.536953         1.058613         2.879676
 H        -1.598745        -0.888077         2.538277
 H        -2.638967        -0.701251         1.130851
