19
Iteration:  1772
 O         0.135243         0.023412         0.388198
 C        -0.820222         0.671811         1.071238
 C        -1.512278         1.748648         0.247816
 C        -2.599071         2.249266         1.173432
 O        -2.137593         3.207179         2.173911
 C        -1.469100         2.114280         2.899784
 C        -0.201990         1.581954         2.107375
 C        -2.581973         1.129991         2.420706
 C        -1.949109        -0.134579         1.850563
 H        -0.364963        -0.594189        -0.190311
 H        -0.848059         2.528793        -0.002786
 H        -2.065337         1.545670        -0.694946
 H        -3.498376         2.637271         0.759576
 H        -1.257136         2.250812         3.962777
 H         0.559060         2.313898         1.661050
 H         0.421432         0.987766         2.884353
 H        -3.629404         1.039221         2.846402
 H        -1.514267        -0.789812         2.567722
 H        -2.589087        -0.661610         1.093215
