19
Iteration:  2947charge 0 multiplicity 1
 O         0.191123        -0.141748         0.309931
 C        -0.782701         0.757656         0.984150
 C        -1.695609         1.859942         0.172581
 C        -2.683629         2.302410         1.260129
 O        -1.973122         3.269257         2.266243
 C        -1.550219         2.100669         2.942072
 C        -0.297983         1.505208         2.198693
 C        -2.580316         1.117878         2.379092
 C        -1.866900        -0.095130         1.718500
 H        -0.085120        -1.053658         0.391772
 H        -1.100325         2.690979         0.003854
 H        -1.977269         1.400032        -0.780097
 H        -3.584061         2.673004         1.005965
 H        -1.228378         2.304903         3.938285
 H         0.599824         2.210289         1.946687
 H         0.192124         0.782547         2.961654
 H        -3.415789         0.939691         3.043884
 H        -1.334712        -0.581191         2.494661
 H        -2.493918        -0.703933         1.035757
