19
Iteration:  2917charge 0 multiplicity 1
 O         0.054623        -0.047407         0.334317
 C        -0.795373         0.739232         1.064674
 C        -1.588141         1.731399         0.244986
 C        -2.609107         2.263268         1.231908
 O        -2.079460         3.190103         2.306789
 C        -1.486131         2.019934         2.946295
 C        -0.103375         1.610801         2.151729
 C        -2.572932         1.153906         2.311175
 C        -1.967167        -0.010592         1.675023
 H        -0.234998        -0.988444         0.418683
 H        -0.869575         2.603698        -0.033035
 H        -1.927657         1.187839        -0.629142
 H        -3.581198         2.637914         0.835246
 H        -1.253120         2.207191         3.961277
 H         0.306706         2.438706         1.651716
 H         0.486446         1.020603         2.832776
 H        -3.445512         1.040580         2.936562
 H        -1.531336        -0.681297         2.468247
 H        -2.516193        -0.560400         0.920089
