19
Iteration:  2396charge 0 multiplicity 1
 O         0.043891        -0.121477         0.257808
 C        -0.765001         0.740315         1.093737
 C        -1.665077         1.714018         0.191384
 C        -2.683557         2.288091         1.259776
 O        -2.090088         3.232442         2.164913
 C        -1.488244         2.132133         2.884580
 C        -0.054751         1.530808         2.307563
 C        -2.595402         1.170584         2.388152
 C        -1.904360        -0.069191         1.743282
 H         0.963384         0.211055         0.364509
 H        -0.950293         2.490035        -0.306083
 H        -2.022154         1.068440        -0.631902
 H        -3.616270         2.650945         0.955155
 H        -1.584011         2.364152         4.010590
 H         0.621276         2.311138         1.969467
 H         0.349426         0.766938         2.934262
 H        -3.391823         1.061816         3.040010
 H        -1.707204        -0.822744         2.563740
 H        -2.482595        -0.677526         1.037316
