19
Iteration:   850charge 0 multiplicity 1
 O         0.099867        -0.025663         0.249223
 C        -0.852100         0.716051         1.052939
 C        -1.514264         1.769236         0.188848
 C        -2.520759         2.322401         1.255832
 O        -2.049579         3.206184         2.246956
 C        -1.569370         2.007807         2.979698
 C        -0.223928         1.513812         2.249146
 C        -2.671017         1.160685         2.232587
 C        -1.898707        -0.074989         1.814717
 H         0.808987        -0.423253         0.779187
 H        -0.875129         2.712566        -0.162362
 H        -2.187990         1.279069        -0.728908
 H        -3.353973         2.786355         0.777877
 H        -1.514988         2.254369         4.064737
 H         0.357735         2.436839         1.967020
 H         0.320497         0.806588         2.901779
 H        -3.660096         0.955602         2.616495
 H        -1.617284        -0.701866         2.693866
 H        -2.512377        -0.692742         0.989898
