19
Iteration:  2877charge 0 multiplicity 1
 O         0.199961         0.108346         0.214090
 C        -0.836629         0.761192         1.020460
 C        -1.677478         1.727265         0.189234
 C        -2.661086         2.221883         1.246316
 O        -1.933290         3.170613         2.119228
 C        -1.459718         2.072507         2.998329
 C        -0.265531         1.374926         2.309198
 C        -2.601757         1.221573         2.403525
 C        -1.949879        -0.011690         1.783672
 H         0.160247        -0.835874         0.372930
 H        -1.164211         2.667388        -0.191197
 H        -2.223117         1.197080        -0.610731
 H        -3.643357         2.687583         0.784217
 H        -1.603957         2.308241         4.109697
 H         0.620035         2.018288         2.233772
 H         0.209761         0.505981         2.826007
 H        -3.520035         0.994448         2.978680
 H        -1.469504        -0.456765         2.677268
 H        -2.628960        -0.671213         1.195361
