19
Iteration:   481charge 0 multiplicity 1
 O         0.085528        -0.228932         0.319435
 C        -0.773879         0.749688         1.036589
 C        -1.496498         1.901178         0.236317
 C        -2.517912         2.416198         1.168675
 O        -1.999318         3.196336         2.381586
 C        -1.678468         1.961157         2.966985
 C        -0.194746         1.546074         2.297935
 C        -2.743738         1.100651         2.207504
 C        -1.949766        -0.047361         1.660644
 H         0.929455         0.264707         0.251102
 H        -0.752319         2.620604        -0.149913
 H        -2.015437         1.511598        -0.651525
 H        -3.371649         2.992390         0.913657
 H        -1.576002         1.956791         4.066524
 H         0.358812         2.444157         1.944374
 H         0.605380         0.983319         2.714471
 H        -3.793506         0.980614         2.617200
 H        -1.543086        -0.788381         2.419266
 H        -2.396961        -0.702556         0.895612
