19
Iteration:  1816
 O         0.154357        -0.073222         0.452711
 C        -0.823654         0.845951         1.045821
 C        -1.763481         1.664680         0.155751
 C        -2.648719         2.243059         1.277676
 O        -1.938822         3.218236         2.101356
 C        -1.462456         2.100804         2.945855
 C        -0.241051         1.583914         2.266032
 C        -2.608207         1.093913         2.369475
 C        -1.877841        -0.073463         1.735829
 H         0.466950         0.126052        -0.452863
 H        -1.267661         2.437969        -0.424581
 H        -2.298290         0.915756        -0.521180
 H        -3.582050         2.648451         0.939372
 H        -1.418317         2.514653         3.971850
 H         0.579800         2.408479         2.194669
 H         0.326252         0.751038         2.816851
 H        -3.568027         0.967493         3.025748
 H        -1.468379        -0.935739         2.256265
 H        -2.539444        -0.379596         0.904413
