19
Iteration:  2037charge 0 multiplicity 1
 O         0.169971        -0.099940         0.292136
 C        -0.826006         0.662182         1.067345
 C        -1.690940         1.691373         0.257415
 C        -2.721124         2.228569         1.309921
 O        -2.077493         3.259909         2.172505
 C        -1.464723         2.156710         2.857837
 C        -0.190224         1.677942         2.131023
 C        -2.580904         1.129821         2.388930
 C        -1.868173        -0.109101         1.809445
 H         0.857691        -0.371727         0.926742
 H        -0.813336         2.309080        -0.296996
 H        -2.161646         1.229512        -0.637361
 H        -3.674918         2.555148         0.901447
 H        -1.390871         2.321705         3.994923
 H         0.433292         2.543214         1.647206
 H         0.600346         1.124249         2.609731
 H        -3.413714         1.125965         3.074255
 H        -1.585337        -0.955122         2.474386
 H        -2.660165        -0.410302         1.132135
