19
Iteration:  2723
 O         0.259604         0.008114         0.299724
 C        -0.810824         0.726145         1.036506
 C        -1.723051         1.773193         0.212279
 C        -2.615020         2.398216         1.243882
 O        -1.898207         3.128854         2.123928
 C        -1.510632         2.029947         2.934767
 C        -0.270376         1.359675         2.310992
 C        -2.670853         1.152263         2.344407
 C        -1.982559        -0.055449         1.795348
 H         0.247798         0.319360        -0.643131
 H        -1.010555         2.691380        -0.054625
 H        -2.232238         1.497137        -0.673195
 H        -3.607346         2.912156         0.868059
 H        -1.433586         2.415203         4.015778
 H         0.335393         2.207944         1.960674
 H         0.207952         0.746405         3.209504
 H        -3.495462         1.172824         3.025204
 H        -1.572615        -0.639337         2.682131
 H        -2.642225        -0.848667         1.416246
