19
Iteration:  2218
 O         0.226089         0.041510         0.372365
 C        -0.801972         0.779007         1.033998
 C        -1.825605         1.670383         0.204950
 C        -2.733400         2.202745         1.312104
 O        -1.936483         3.166839         1.998558
 C        -1.438911         2.103522         2.921513
 C        -0.155393         1.572716         2.270569
 C        -2.563661         1.132008         2.364392
 C        -1.915282        -0.038181         1.862727
 H        -0.279978        -0.412146        -0.342342
 H        -1.414256         2.525531        -0.285952
 H        -2.411525         1.031809        -0.562870
 H        -3.708242         2.551496         0.861421
 H        -1.532425         2.405911         3.959010
 H         0.569516         2.274904         2.064244
 H         0.369449         0.854862         2.930794
 H        -3.473850         0.939053         3.073600
 H        -1.353152        -0.617694         2.611684
 H        -2.605434        -0.667679         1.236887
