19
Iteration:  3990charge 0 multiplicity 1
 O         0.121454        -0.062381         0.271599
 C        -0.791093         0.841837         0.972335
 C        -1.604387         1.825879         0.235243
 C        -2.679976         2.301179         1.287255
 O        -2.018697         3.179721         2.295312
 C        -1.510932         1.984375         2.959208
 C        -0.106715         1.403219         2.249402
 C        -2.621999         1.161081         2.357707
 C        -1.972846         0.054021         1.667625
 H        -0.021463        -0.997408         0.522741
 H        -0.899111         2.550078        -0.308793
 H        -2.066945         1.280428        -0.576175
 H        -3.649875         2.527279         0.735771
 H        -1.481149         2.214148         4.004174
 H         0.532591         2.305705         2.029679
 H         0.672639         0.693947         2.773435
 H        -3.585294         1.149244         2.944910
 H        -1.543619        -0.704517         2.256018
 H        -2.574789        -0.468397         0.931194
