19
Iteration:  3919charge 0 multiplicity 1
 O         0.122272         0.105503         0.236068
 C        -0.817860         0.693325         1.103833
 C        -1.641135         1.724782         0.250608
 C        -2.673639         2.302714         1.216642
 O        -1.878752         3.184454         2.150320
 C        -1.480421         2.025988         2.976566
 C        -0.191443         1.386005         2.354324
 C        -2.643408         1.220550         2.356684
 C        -1.984264        -0.080946         1.694454
 H         0.330218         0.636532        -0.555357
 H        -1.104947         2.469859        -0.253317
 H        -2.268510         1.135416        -0.442823
 H        -3.589878         2.750511         0.886179
 H        -1.549793         2.214976         4.094953
 H         0.628329         2.116501         2.301150
 H         0.303279         0.598643         2.902711
 H        -3.502176         0.977685         2.894958
 H        -1.689295        -0.810841         2.539728
 H        -2.690076        -0.713831         1.137082
