19
Iteration:  1301charge 0 multiplicity 1
 O         0.184953        -0.030262         0.392161
 C        -0.792798         0.740550         1.063551
 C        -1.573489         1.774662         0.233377
 C        -2.653463         2.286127         1.256908
 O        -1.987692         3.208510         2.170747
 C        -1.543541         2.032430         2.927198
 C        -0.220090         1.519878         2.327138
 C        -2.654651         1.149305         2.239570
 C        -1.958037        -0.052418         1.714392
 H        -0.012353        -0.370165        -0.490173
 H        -0.972722         2.564010        -0.152617
 H        -2.009496         1.177323        -0.600497
 H        -3.482820         2.794746         0.873451
 H        -1.532454         2.402782         3.934757
 H         0.513696         2.329894         2.212253
 H         0.344281         0.704379         2.896059
 H        -3.606367         0.950048         2.833261
 H        -1.615627        -0.762768         2.449303
 H        -2.454875        -0.764027         1.023194
