19
Iteration:  4294
 O         0.184740         0.158010         0.360825
 C        -0.847288         0.772736         1.072588
 C        -1.725627         1.726398         0.190807
 C        -2.650576         2.384152         1.358909
 O        -1.836966         3.153616         2.201473
 C        -1.472451         1.944505         2.909192
 C        -0.210717         1.458308         2.246494
 C        -2.668239         1.157685         2.305757
 C        -1.979105        -0.113603         1.649437
 H        -0.055455        -0.655290        -0.114028
 H        -1.170911         2.473389        -0.545672
 H        -2.381253         1.079563        -0.399462
 H        -3.627369         2.794775         1.056031
 H        -1.379833         2.121439         4.040128
 H         0.442289         2.315400         2.045422
 H         0.383889         0.669930         2.858923
 H        -3.463314         1.019154         3.014221
 H        -1.861955        -0.723217         2.603961
 H        -2.222002        -0.751937         0.774124
