19
Iteration:  3165charge 0 multiplicity 1
 O         0.113953        -0.078996         0.183219
 C        -0.762691         0.717079         1.020109
 C        -1.668404         1.835161         0.192211
 C        -2.584434         2.225608         1.250769
 O        -2.017412         3.242702         2.199890
 C        -1.497374         2.107710         2.990726
 C        -0.264939         1.484095         2.231742
 C        -2.575574         1.167388         2.363091
 C        -1.912264        -0.029481         1.811739
 H         0.557966        -0.804827         0.652494
 H        -1.166672         2.653108        -0.205637
 H        -2.096861         1.234911        -0.744482
 H        -3.613657         2.377138         1.058973
 H        -1.630272         2.344425         4.066899
 H         0.534087         2.309372         2.101048
 H         0.253442         0.814889         2.919861
 H        -3.542414         1.026467         2.933320
 H        -1.466629        -0.667169         2.603221
 H        -2.612706        -0.710794         1.276520
