19
Iteration:  4793
 O         0.085802        -0.037403         0.239276
 C        -0.796402         0.759494         1.071626
 C        -1.560113         1.792195         0.271248
 C        -2.624560         2.274561         1.325371
 O        -1.998347         3.192780         2.159000
 C        -1.486400         2.032505         2.935069
 C        -0.208663         1.488313         2.368654
 C        -2.646175         1.140853         2.347934
 C        -1.922795        -0.097406         1.651553
 H        -0.158617         0.113192        -0.693042
 H        -0.893619         2.671339        -0.057397
 H        -2.208443         1.390844        -0.516174
 H        -3.572446         2.627418         0.930240
 H        -1.393471         2.427441         3.952282
 H         0.538261         2.300701         2.283993
 H         0.357571         0.712200         2.901864
 H        -3.436555         1.151959         3.058736
 H        -1.692028        -0.765663         2.472940
 H        -2.425263        -0.525006         0.764521
