19
Iteration:  1449
 O         0.224284        -0.005552         0.365498
 C        -0.814807         0.717217         1.029560
 C        -1.616897         1.720270         0.225873
 C        -2.621191         2.299414         1.258328
 O        -1.990539         3.246925         2.076557
 C        -1.501717         2.067751         2.886548
 C        -0.246000         1.434680         2.361905
 C        -2.618626         1.147015         2.392655
 C        -2.022709        -0.073732         1.693605
 H         0.655717         0.800435         0.051342
 H        -1.000993         2.592061        -0.195362
 H        -2.005984         1.243817        -0.596096
 H        -3.674200         2.650041         0.883367
 H        -1.481870         2.120295         4.020817
 H         0.701020         2.108542         2.161582
 H        -0.084056         0.634087         3.171277
 H        -3.508364         0.940833         2.980810
 H        -1.755810        -0.907103         2.412417
 H        -2.706641        -0.515361         0.978366
