19
Iteration:  3830charge 0 multiplicity 1
 O         0.076587        -0.176542         0.190002
 C        -0.770796         0.697052         0.982438
 C        -1.615075         1.788875         0.168074
 C        -2.634957         2.369158         1.320587
 O        -2.066438         3.262419         2.271217
 C        -1.510428         2.069238         3.004086
 C        -0.224487         1.505138         2.292904
 C        -2.584965         1.178029         2.362719
 C        -1.901298        -0.065777         1.712040
 H         0.898351        -0.277306         0.693303
 H        -0.987400         2.498958        -0.262041
 H        -2.183090         1.510021        -0.761025
 H        -3.558687         2.576385         0.816196
 H        -1.337243         2.330758         4.065689
 H         0.446929         2.404386         2.061234
 H         0.464314         0.891829         2.897842
 H        -3.579500         0.978446         2.830232
 H        -1.398433        -0.879702         2.394663
 H        -2.459710        -0.627833         0.895248
