19
Iteration:  1148
 O         0.146182        -0.131711         0.410615
 C        -0.735816         0.831405         1.041926
 C        -1.610028         1.869290         0.125649
 C        -2.629751         2.267589         1.196488
 O        -2.027527         3.206518         2.267233
 C        -1.537074         2.066719         2.933509
 C        -0.225966         1.538639         2.298195
 C        -2.646775         1.135009         2.263611
 C        -1.845297        -0.087637         1.715302
 H        -0.536002        -0.800330         0.202011
 H        -0.974397         2.690778        -0.147376
 H        -2.296943         1.542019        -0.678296
 H        -3.502768         2.550524         0.673373
 H        -1.658414         2.155700         4.020797
 H         0.544106         2.312912         2.115770
 H         0.335657         0.657402         2.879777
 H        -3.597137         1.048524         2.909470
 H        -1.457146        -0.765564         2.501083
 H        -2.408412        -0.755252         0.911621
