19
Iteration:  1356
 O         0.307852         0.077726         0.398353
 C        -0.809414         0.668152         1.068592
 C        -1.608825         1.829294         0.227148
 C        -2.645832         2.290336         1.205863
 O        -2.020146         3.259219         2.151955
 C        -1.524205         2.058414         2.901136
 C        -0.294579         1.321611         2.260386
 C        -2.671442         1.198194         2.375773
 C        -1.946021        -0.093944         1.747497
 H         0.062513        -0.669937        -0.195612
 H        -1.050302         2.639511        -0.182421
 H        -2.057252         1.342861        -0.769134
 H        -3.468279         2.766384         0.794753
 H        -1.293814         2.448332         3.863031
 H         0.588447         1.912623         2.002460
 H        -0.157156         0.483943         2.991871
 H        -3.681037         1.114467         2.928814
 H        -1.342804        -0.715550         2.385778
 H        -2.622471        -0.688722         1.070368
