19
Iteration:  2580charge 0 multiplicity 1
 O         0.155426         0.111972         0.377601
 C        -0.890455         0.726197         1.010288
 C        -1.598356         1.806863         0.235294
 C        -2.623895         2.260189         1.212492
 O        -1.938433         3.296332         2.172910
 C        -1.430897         1.974081         2.899002
 C        -0.272324         1.432368         2.265050
 C        -2.567613         1.160190         2.303960
 C        -2.034366        -0.129553         1.765280
 H        -0.068213        -0.790352         0.164633
 H        -0.854107         2.587673        -0.124105
 H        -2.106758         1.496523        -0.647994
 H        -3.636974         2.450441         0.802120
 H        -1.424304         2.166720         3.979378
 H         0.581047         2.051180         2.081529
 H         0.200202         0.648415         3.101794
 H        -3.351019         0.981002         2.953567
 H        -1.588079        -0.794820         2.540545
 H        -2.633543        -0.798430         1.167606
