19
Iteration:  2974
 O         0.171520         0.130286         0.259158
 C        -0.798037         0.771427         1.131276
 C        -1.642590         1.762748         0.239306
 C        -2.605643         2.254932         1.222208
 O        -1.982576         3.182231         2.112615
 C        -1.447213         2.028589         2.951693
 C        -0.173414         1.446476         2.283251
 C        -2.620897         1.168420         2.398642
 C        -2.083120        -0.126860         1.760719
 H        -0.072346        -0.735538        -0.065204
 H        -1.101864         2.559505        -0.463833
 H        -2.099396         1.036733        -0.467278
 H        -3.633679         2.644768         0.755072
 H        -1.219986         2.370408         3.998149
 H         0.568133         2.143670         2.039209
 H         0.455651         0.834495         2.892624
 H        -3.393162         1.239118         3.196490
 H        -1.865963        -0.911417         2.554507
 H        -2.633851        -0.561361         0.892561
