19
Iteration:  4278charge 0 multiplicity 1
 O         0.221702         0.113889         0.259673
 C        -0.846100         0.762037         0.998209
 C        -1.725528         1.749865         0.204921
 C        -2.620445         2.267259         1.246974
 O        -1.920396         3.196076         2.264750
 C        -1.445334         2.012819         2.989450
 C        -0.200738         1.428905         2.286575
 C        -2.665426         1.139156         2.313699
 C        -1.993917        -0.035468         1.724974
 H        -0.056521        -0.807301         0.345055
 H        -1.187486         2.536225        -0.215228
 H        -2.286692         1.202202        -0.585248
 H        -3.505354         2.803728         0.895812
 H        -1.323010         2.102946         4.052385
 H         0.640741         2.165811         1.992059
 H         0.341012         0.634112         2.853499
 H        -3.672065         1.005151         2.808264
 H        -1.423695        -0.739909         2.294889
 H        -2.798702        -0.466590         1.116603
