19
Iteration:  4863
 O         0.102332         0.052263         0.352843
 C        -0.818096         0.782642         0.995831
 C        -1.657692         1.745896         0.146416
 C        -2.644627         2.334318         1.281447
 O        -1.975156         3.189475         2.239342
 C        -1.423573         1.949962         3.013562
 C        -0.207574         1.499031         2.282226
 C        -2.580280         1.192423         2.308512
 C        -1.943860        -0.090321         1.653587
 H        -0.267093        -0.752267        -0.054556
 H        -1.128760         2.531592        -0.285197
 H        -2.120466         1.087707        -0.615896
 H        -3.508686         2.732581         0.839267
 H        -1.396056         1.974789         4.116172
 H         0.499547         2.351602         2.302617
 H         0.348495         0.824280         2.971454
 H        -3.498029         0.960164         2.954868
 H        -1.551704        -0.784958         2.357446
 H        -2.527808        -0.471147         0.887985
