19
Iteration:  1089
 O         0.218105         0.088667         0.423587
 C        -0.838844         0.725114         1.056373
 C        -1.576893         1.698537         0.191097
 C        -2.648544         2.228216         1.281620
 O        -1.950835         3.178660         2.087345
 C        -1.490324         2.099918         2.962342
 C        -0.254451         1.465188         2.360774
 C        -2.593230         1.146314         2.377333
 C        -2.028660        -0.042649         1.626858
 H        -0.126569         0.156562        -0.477672
 H        -0.878269         2.392455        -0.352688
 H        -2.140447         1.091766        -0.531061
 H        -3.690316         2.587120         0.915214
 H        -1.561431         2.384072         4.010494
 H         0.581248         2.130043         1.988600
 H         0.192450         0.581323         3.025090
 H        -3.435945         1.049920         3.020627
 H        -1.685011        -0.895828         2.271117
 H        -2.780111        -0.317353         0.811054
