19
Iteration:  2725
 O         0.261700         0.016832         0.300254
 C        -0.814839         0.723825         1.041174
 C        -1.723156         1.774485         0.235014
 C        -2.620357         2.414339         1.242071
 O        -1.905458         3.132835         2.118357
 C        -1.505504         2.020780         2.906146
 C        -0.270918         1.357840         2.319221
 C        -2.672449         1.149390         2.347073
 C        -1.978823        -0.065863         1.792229
 H         0.272978         0.352097        -0.624803
 H        -0.980667         2.569977        -0.051612
 H        -2.276732         1.472865        -0.636550
 H        -3.502191         2.915232         0.920123
 H        -1.420339         2.388744         3.995057
 H         0.372877         2.206955         1.907014
 H         0.152044         0.710802         3.203741
 H        -3.533193         1.240480         3.040784
 H        -1.527988        -0.618110         2.634487
 H        -2.645303        -0.856647         1.441852
