19
Iteration:   274
 O         0.199739         0.140118         0.309417
 C        -0.808272         0.775066         1.103181
 C        -1.562139         1.774920         0.224814
 C        -2.580460         2.328408         1.287060
 O        -1.845930         3.094160         2.141264
 C        -1.496020         2.050424         3.020996
 C        -0.236576         1.450378         2.392018
 C        -2.766043         1.064377         2.276124
 C        -2.119535        -0.013611         1.551990
 H         0.435935        -0.785187         0.571250
 H        -1.042212         2.399722        -0.466191
 H        -2.234227         1.105982        -0.488103
 H        -3.440407         2.830461         0.851959
 H        -1.507217         2.231903         4.132584
 H         0.477971         2.273656         2.040164
 H         0.287484         0.891021         3.254028
 H        -3.743545         0.800458         2.889718
 H        -1.840262        -0.918144         2.149555
 H        -2.646005        -0.447879         0.704746
