19
Iteration:  3023charge 0 multiplicity 1
 O         0.133681        -0.025368         0.421710
 C        -0.873836         0.748301         1.030159
 C        -1.718659         1.786997         0.158997
 C        -2.715605         2.348805         1.274474
 O        -1.939710         3.236071         2.210899
 C        -1.468548         2.075734         2.849335
 C        -0.173555         1.434955         2.278620
 C        -2.581854         1.123753         2.312183
 C        -1.901545        -0.131826         1.775114
 H         0.349716         0.207058        -0.521690
 H        -1.277560         2.503174        -0.372232
 H        -2.325617         1.191820        -0.574921
 H        -3.547207         2.806905         0.920560
 H        -1.337601         2.318880         3.892979
 H         0.754077         2.074941         2.127193
 H         0.256856         0.798626         3.065954
 H        -3.429181         0.912102         2.950644
 H        -1.325039        -0.836257         2.365196
 H        -2.447689        -0.705766         1.010947
