19
Iteration:   912charge 0 multiplicity 1
 O         0.205318         0.053508         0.441028
 C        -0.820104         0.762019         1.020421
 C        -1.616516         1.854720         0.119139
 C        -2.654717         2.248153         1.235513
 O        -1.962248         3.183645         2.149194
 C        -1.498286         2.071906         2.907386
 C        -0.298918         1.383468         2.297874
 C        -2.628872         1.137711         2.340926
 C        -1.923613        -0.048440         1.766682
 H        -0.173627        -0.402716        -0.325846
 H        -1.032790         2.751226        -0.022976
 H        -1.991931         1.382561        -0.713161
 H        -3.584933         2.696151         0.785308
 H        -1.422040         2.123620         3.998952
 H         0.546406         2.055050         2.135369
 H         0.256287         0.649775         2.958687
 H        -3.466847         0.770893         2.983250
 H        -1.490862        -0.830858         2.414417
 H        -2.659854        -0.615961         1.215522
