19
Iteration:   425charge 0 multiplicity 1
 O         0.159137         0.033458         0.289096
 C        -0.760802         0.710877         1.147515
 C        -1.551876         1.758673         0.248872
 C        -2.601239         2.264168         1.288574
 O        -1.898782         3.217200         2.116326
 C        -1.545267         2.024381         2.989495
 C        -0.293279         1.401313         2.556420
 C        -2.611312         1.136920         2.278907
 C        -2.066364        -0.024310         1.486663
 H         0.481249         0.597977        -0.426476
 H        -0.896211         2.623296        -0.187484
 H        -1.901157         1.162133        -0.594620
 H        -3.618823         2.611567         1.098433
 H        -1.580649         2.225732         4.067373
 H         0.358686         2.246720         2.171243
 H         0.102645         0.576225         3.149828
 H        -3.621419         1.015355         2.847286
 H        -2.108862        -1.033111         2.030488
 H        -2.639738        -0.021918         0.530654
