19
Iteration:  4442charge 0 multiplicity 1
 O         0.127396         0.151531         0.186800
 C        -0.813473         0.788725         1.036547
 C        -1.639605         1.719927         0.224588
 C        -2.673019         2.188151         1.219401
 O        -1.915997         3.181850         2.128185
 C        -1.428155         2.068115         3.051949
 C        -0.202411         1.390526         2.314463
 C        -2.600083         1.139216         2.417827
 C        -2.085328        -0.074682         1.705902
 H         0.829515        -0.171544         0.782999
 H        -1.159661         2.655053        -0.031024
 H        -2.147508         1.273163        -0.669147
 H        -3.649815         2.550781         0.802114
 H        -1.233715         2.344840         4.098646
 H         0.568111         2.131797         2.212543
 H         0.218481         0.770546         3.008619
 H        -3.564753         1.153937         2.963149
 H        -1.595273        -0.834938         2.348909
 H        -2.770368        -0.562587         0.912534
