19
Iteration:    69
 O         0.208967        -0.106050         0.401457
 C        -0.829497         0.678463         1.053748
 C        -1.416074         1.879482         0.225225
 C        -2.544628         2.357054         1.244971
 O        -2.063830         3.190008         2.318219
 C        -1.517153         1.993518         2.998504
 C        -0.193331         1.470662         2.345844
 C        -2.687329         1.124928         2.212816
 C        -2.156553        -0.055661         1.518101
 H         0.682926         0.384606        -0.331695
 H        -0.723270         2.628611         0.143350
 H        -1.849823         1.651023        -0.781054
 H        -3.430563         2.737947         0.699524
 H        -1.555678         2.217702         4.088790
 H         0.457843         2.318621         2.081043
 H         0.248196         0.646770         2.979995
 H        -3.590711         1.237620         2.845727
 H        -2.101584        -1.023540         2.072748
 H        -2.752419        -0.251564         0.633565
