19
Iteration:  3999
 O         0.086500        -0.000808         0.206843
 C        -0.787301         0.733594         1.073284
 C        -1.592144         1.786792         0.195719
 C        -2.600699         2.294962         1.286766
 O        -1.982927         3.153680         2.252055
 C        -1.479384         2.026189         2.973392
 C        -0.183142         1.460986         2.273945
 C        -2.633582         1.178999         2.322055
 C        -1.967242         0.004697         1.680020
 H         0.093319        -0.883719         0.639282
 H        -1.152657         2.818533        -0.052880
 H        -2.106310         1.397507        -0.624160
 H        -3.611346         2.763548         1.009695
 H        -1.574920         2.106270         4.086848
 H         0.435812         2.265214         1.881894
 H         0.445000         0.769249         3.005340
 H        -3.549659         0.849276         2.914727
 H        -1.496113        -0.693457         2.341366
 H        -2.642831        -0.388625         0.914935
