19
Iteration:  1503charge 0 multiplicity 1
 O         0.171594        -0.054023         0.274218
 C        -0.786296         0.667715         1.028939
 C        -1.592640         1.797289         0.161844
 C        -2.609684         2.320240         1.175479
 O        -2.063053         3.244041         2.283766
 C        -1.537656         2.083128         2.942722
 C        -0.276262         1.494669         2.266456
 C        -2.609819         1.214303         2.232327
 C        -1.900175        -0.155187         1.804214
 H         0.622357        -0.507086         1.000516
 H        -0.994014         2.727483        -0.256584
 H        -2.120621         1.335001        -0.646505
 H        -3.655323         2.642076         0.809502
 H        -1.512068         2.162635         4.067409
 H         0.472665         2.367741         1.979636
 H         0.283244         0.740478         2.957181
 H        -3.461075         1.109644         2.913350
 H        -1.701670        -0.522224         2.829774
 H        -2.349366        -0.878212         1.192110
