19
Iteration:  4304
 O         0.239964         0.116467         0.342763
 C        -0.862858         0.765353         1.060431
 C        -1.765022         1.742202         0.256310
 C        -2.655971         2.389395         1.270284
 O        -1.811465         3.163801         2.183519
 C        -1.496215         1.973423         2.923561
 C        -0.262725         1.453492         2.296648
 C        -2.645033         1.101318         2.319206
 C        -1.969458        -0.105985         1.695632
 H        -0.296508        -0.345265        -0.318950
 H        -1.095348         2.475614        -0.361616
 H        -2.451988         1.232271        -0.401152
 H        -3.475199         2.996757         0.919789
 H        -1.516083         2.063381         4.062748
 H         0.325172         2.338577         1.871639
 H         0.531296         0.765073         2.781522
 H        -3.339922         0.907021         3.109435
 H        -1.484211        -0.913932         2.290326
 H        -2.583823        -0.547652         0.892408
