19
Iteration:  2042charge 0 multiplicity 1
 O         0.122323        -0.066415         0.313898
 C        -0.788999         0.698355         1.042820
 C        -1.676615         1.706728         0.230651
 C        -2.692351         2.202288         1.274951
 O        -2.063105         3.251389         2.130426
 C        -1.483244         2.144461         2.892957
 C        -0.133334         1.682341         2.146871
 C        -2.573733         1.120362         2.414535
 C        -1.912058        -0.119605         1.840374
 H         0.755570        -0.438526         0.964102
 H        -1.035834         2.423199        -0.156778
 H        -2.205900         1.259378        -0.618438
 H        -3.714001         2.493051         0.924175
 H        -1.269173         2.338048         3.906657
 H         0.241835         2.573421         1.705927
 H         0.714108         1.046973         2.630202
 H        -3.473134         0.957557         3.062733
 H        -1.626527        -1.018416         2.388221
 H        -2.641912        -0.529332         1.089011
