19
Iteration:  1019charge 0 multiplicity 1
 O         0.088020        -0.157311         0.335414
 C        -0.736798         0.719400         1.108580
 C        -1.542423         1.755608         0.246866
 C        -2.579989         2.275747         1.287477
 O        -2.102965         3.208304         2.253130
 C        -1.534376         2.101901         2.909706
 C        -0.169172         1.605517         2.238653
 C        -2.586044         1.157732         2.312184
 C        -2.025011        -0.078097         1.618241
 H         0.922244         0.310794         0.197232
 H        -0.950685         2.560416        -0.269742
 H        -2.025717         1.234519        -0.635004
 H        -3.556172         2.502511         0.801358
 H        -1.471524         2.233434         4.019373
 H         0.321011         2.479474         1.829264
 H         0.476776         1.056482         2.873305
 H        -3.454276         0.917074         3.006431
 H        -1.898210        -0.801652         2.447701
 H        -2.472174        -0.486843         0.783874
