19
Iteration:   641
 O         0.186349        -0.048743         0.334794
 C        -0.767733         0.724434         1.075578
 C        -1.499706         1.816177         0.272066
 C        -2.628107         2.330107         1.230682
 O        -2.058327         3.244963         2.189176
 C        -1.468359         2.029514         2.998022
 C        -0.185048         1.420574         2.388307
 C        -2.723410         1.136388         2.233340
 C        -2.009824        -0.072368         1.608667
 H        -0.277262        -0.245237        -0.530133
 H        -0.745566         2.612668        -0.148496
 H        -2.082190         1.546604        -0.584911
 H        -3.593502         2.761698         0.905736
 H        -1.322327         2.084877         4.073747
 H         0.460802         2.285572         2.170248
 H         0.252344         0.698895         3.197180
 H        -3.631393         1.016938         2.916356
 H        -1.632395        -0.742020         2.386400
 H        -2.515212        -0.496054         0.680362
