19
Iteration:  2212
 O         0.184222         0.022988         0.351791
 C        -0.762408         0.790639         1.067164
 C        -1.789060         1.635442         0.248075
 C        -2.713066         2.234790         1.301843
 O        -1.943294         3.202011         1.971296
 C        -1.461056         2.103101         2.907233
 C        -0.167317         1.568058         2.283629
 C        -2.576038         1.118382         2.379270
 C        -1.927698        -0.081147         1.836604
 H        -0.050767        -0.281667        -0.557267
 H        -1.336647         2.619022        -0.118252
 H        -2.290299         1.068819        -0.471689
 H        -3.729594         2.552155         1.129682
 H        -1.515055         2.416447         3.996563
 H         0.383330         2.556934         1.829443
 H         0.407903         0.855341         2.914944
 H        -3.388469         0.891482         2.951754
 H        -1.329185        -0.659740         2.556233
 H        -2.666253        -0.766281         1.436082
