19
Iteration:   216
 O         0.040562        -0.123302         0.223966
 C        -0.720647         0.684086         1.093585
 C        -1.431461         1.817923         0.296181
 C        -2.554681         2.356210         1.202198
 O        -2.077181         3.243106         2.321905
 C        -1.596674         1.993859         3.001692
 C        -0.202180         1.495881         2.287402
 C        -2.686040         1.167408         2.203258
 C        -1.987080        -0.072285         1.678086
 H         0.945576         0.205971         0.177515
 H        -0.616627         2.577664         0.039492
 H        -1.845619         1.340938        -0.551156
 H        -3.459476         2.703123         0.692087
 H        -1.610927         1.978514         4.087651
 H         0.314439         2.423430         1.898146
 H         0.396569         0.935921         3.091869
 H        -3.625062         1.160300         2.677478
 H        -1.678330        -0.847256         2.376829
 H        -2.526255        -0.435894         0.756316
