19
Iteration:   204
 O         0.024643        -0.140188         0.279035
 C        -0.771392         0.684833         1.180624
 C        -1.456598         1.856171         0.202173
 C        -2.553196         2.316458         1.232746
 O        -1.956621         3.218543         2.298901
 C        -1.619762         1.926543         2.918100
 C        -0.283004         1.589291         2.396967
 C        -2.620368         1.134350         2.230178
 C        -1.945727        -0.042826         1.603542
 H         0.629147         0.498001        -0.152310
 H        -0.898758         2.729064        -0.313144
 H        -1.834578         1.341213        -0.624140
 H        -3.483720         2.806193         0.872286
 H        -1.703530         2.020079         3.994242
 H         0.341867         2.462274         2.043232
 H         0.472350         1.081320         3.127791
 H        -3.490581         0.878331         2.745289
 H        -2.006049        -0.896029         2.280318
 H        -2.543454        -0.478841         0.740707
