19
Iteration:  4754
 O         0.042950        -0.103751         0.347019
 C        -0.797085         0.761424         0.986032
 C        -1.565606         1.828663         0.196020
 C        -2.554083         2.332402         1.334565
 O        -2.085260         3.172596         2.287265
 C        -1.436725         2.013179         2.951000
 C        -0.215950         1.516898         2.167248
 C        -2.627065         1.117431         2.317784
 C        -1.965873        -0.049795         1.704668
 H         0.558426         0.436257        -0.288019
 H        -0.825829         2.464114        -0.140764
 H        -2.095494         1.368359        -0.658977
 H        -3.506850         2.692589         0.912759
 H        -1.419791         2.019829         4.056034
 H         0.487701         2.373133         1.950159
 H         0.323087         0.869017         2.882129
 H        -3.580712         1.157844         2.972230
 H        -1.367711        -0.684893         2.398139
 H        -2.383348        -0.763593         1.011351
