19
Iteration:  4285charge 0 multiplicity 1
 O         0.173714         0.155946         0.330035
 C        -0.810932         0.751587         1.042835
 C        -1.742587         1.738099         0.183654
 C        -2.631636         2.288597         1.324966
 O        -1.881912         3.189099         2.244878
 C        -1.423324         1.950922         2.958716
 C        -0.160314         1.456368         2.233247
 C        -2.703528         1.171025         2.304465
 C        -1.976153        -0.065855         1.653909
 H         0.050336        -0.784022         0.132870
 H        -1.181780         2.511545        -0.428495
 H        -2.244958         1.035056        -0.532153
 H        -3.618577         2.803996         1.061443
 H        -1.389121         2.192100         4.037535
 H         0.513861         2.196950         2.095339
 H         0.182108         0.678816         2.878368
 H        -3.700151         1.091886         2.699752
 H        -1.655386        -0.713468         2.539679
 H        -2.661294        -0.730182         1.023144
