19
Iteration:  2488charge 0 multiplicity 1
 O         0.153392         0.034752         0.202449
 C        -0.806178         0.648683         1.115880
 C        -1.638367         1.753222         0.214184
 C        -2.662756         2.254014         1.217736
 O        -1.919209         3.174859         2.092768
 C        -1.550503         2.074814         2.950999
 C        -0.261235         1.446571         2.305843
 C        -2.571501         1.196374         2.410308
 C        -1.992303        -0.041433         1.794149
 H         1.075662         0.029375         0.585429
 H        -1.143951         2.599558        -0.140210
 H        -2.196436         1.403257        -0.677237
 H        -3.639834         2.784930         0.921464
 H        -1.395141         2.307880         3.979188
 H         0.360721         2.429077         2.106007
 H         0.373766         0.723050         2.880296
 H        -3.523013         1.093672         3.106925
 H        -1.650624        -0.840872         2.453763
 H        -2.641964        -0.592005         1.069687
