19
Iteration:  3144
 O         0.149814         0.148701         0.253135
 C        -0.837841         0.713894         1.087796
 C        -1.671172         1.675970         0.267883
 C        -2.667685         2.324205         1.249207
 O        -1.943999         3.206188         2.094627
 C        -1.403887         2.025153         2.903064
 C        -0.166672         1.498843         2.254699
 C        -2.693692         1.117910         2.423501
 C        -1.989943        -0.073249         1.779406
 H         0.312067        -0.772884         0.597825
 H        -1.030389         2.350648        -0.235685
 H        -1.985336         1.055751        -0.717995
 H        -3.543514         2.765822         0.870441
 H        -1.335628         2.300928         3.977010
 H         0.571971         2.304837         1.818491
 H         0.318683         0.722109         2.890403
 H        -3.507883         1.012723         3.220586
 H        -1.642376        -0.915346         2.418388
 H        -2.707172        -0.602654         1.130607
