19
Iteration:  3652
 O         0.173030         0.158851         0.221125
 C        -0.816451         0.785347         1.046897
 C        -1.790357         1.748053         0.136115
 C        -2.557463         2.173916         1.269357
 O        -1.813046         3.107185         2.062316
 C        -1.488056         2.000312         3.038222
 C        -0.248294         1.519389         2.291283
 C        -2.619902         1.218597         2.369817
 C        -2.062349        -0.077886         1.800579
 H         0.505612        -0.468849         0.867446
 H        -1.110273         2.592205        -0.213914
 H        -2.219071         1.127918        -0.578656
 H        -3.610213         2.513264         1.126860
 H        -1.443801         2.118267         4.074504
 H         0.470116         2.321408         2.229829
 H         0.223092         0.653982         2.965914
 H        -3.463827         1.211576         3.000077
 H        -1.736816        -0.874665         2.611784
 H        -2.800566        -0.575670         1.065570
