19
Iteration:  3218
 O         0.150076        -0.021795         0.234479
 C        -0.813317         0.687494         0.998565
 C        -1.614585         1.736049         0.233072
 C        -2.635994         2.274152         1.286211
 O        -2.002349         3.257090         2.162015
 C        -1.466000         2.045480         2.969499
 C        -0.165674         1.482269         2.169898
 C        -2.641603         1.170564         2.448475
 C        -2.009600        -0.074500         1.778690
 H         0.930626        -0.041410         0.800051
 H        -0.961440         2.469242        -0.113059
 H        -2.096885         1.390500        -0.680335
 H        -3.632773         2.561686         0.851367
 H        -1.634499         2.267648         4.044398
 H         0.144739         2.487946         1.905073
 H         0.514695         0.928243         2.812406
 H        -3.524880         1.052465         3.121515
 H        -1.649673        -0.909187         2.376286
 H        -2.719795        -0.548967         1.045788
