19
Iteration:  2722
 O         0.257142         0.004288         0.299472
 C        -0.810277         0.725069         1.033580
 C        -1.718228         1.775835         0.200842
 C        -2.615914         2.385901         1.244371
 O        -1.893154         3.130040         2.128285
 C        -1.513213         2.035031         2.950888
 C        -0.268580         1.362784         2.308325
 C        -2.669806         1.155937         2.343105
 C        -1.984508        -0.052203         1.798309
 H         0.231357         0.298379        -0.639374
 H        -1.042109         2.734252        -0.057950
 H        -2.214650         1.493255        -0.708365
 H        -3.643762         2.899768         0.845310
 H        -1.441397         2.414421         4.009007
 H         0.325672         2.204060         2.000453
 H         0.231510         0.774604         3.176370
 H        -3.487943         1.126849         3.017632
 H        -1.594722        -0.642304         2.699096
 H        -2.641205        -0.838969         1.384534
