19
Iteration:  4558
 O         0.096501         0.134697         0.143027
 C        -0.806367         0.781967         1.030859
 C        -1.689687         1.755630         0.169150
 C        -2.593409         2.252387         1.297886
 O        -1.930892         3.174715         2.178299
 C        -1.475156         2.063139         2.996241
 C        -0.221860         1.378176         2.366777
 C        -2.649283         1.176756         2.345240
 C        -1.958068        -0.069400         1.753182
 H         0.671116        -0.424308         0.683136
 H        -1.048313         2.436059        -0.304492
 H        -2.227409         1.093046        -0.551846
 H        -3.515271         2.637270         0.770876
 H        -1.644457         2.212255         4.057148
 H         0.645801         1.938621         2.121165
 H         0.219315         0.681741         3.078936
 H        -3.565023         1.111568         3.021286
 H        -1.342526        -0.671997         2.436812
 H        -2.546227        -0.736881         1.150841
