19
Iteration:  1044charge 0 multiplicity 1
 O         0.127825        -0.007113         0.325607
 C        -0.818361         0.733707         1.068577
 C        -1.622881         1.680725         0.195079
 C        -2.550239         2.327784         1.186330
 O        -1.958458         3.198702         2.194616
 C        -1.569653         2.026504         2.964643
 C        -0.271452         1.499229         2.316883
 C        -2.653049         1.177670         2.341756
 C        -1.913991        -0.099309         1.754127
 H         0.490283         0.615120        -0.318726
 H        -1.014728         2.546721        -0.204696
 H        -2.048062         1.249022        -0.713104
 H        -3.433637         2.718558         0.556801
 H        -1.522977         2.242375         4.050978
 H         0.309178         2.417961         2.001830
 H         0.437751         0.800849         2.938266
 H        -3.603240         0.984702         2.889211
 H        -1.525315        -0.702290         2.625390
 H        -2.432834        -0.816612         1.052934
