19
Iteration:  3222
 O         0.164762        -0.005360         0.235019
 C        -0.822658         0.671569         0.995202
 C        -1.642772         1.730337         0.229668
 C        -2.627705         2.284127         1.292068
 O        -1.982336         3.241748         2.163909
 C        -1.476564         2.076653         2.961976
 C        -0.213563         1.486885         2.197142
 C        -2.637412         1.155129         2.442275
 C        -2.011370        -0.082501         1.759974
 H         0.970244        -0.050752         0.791175
 H        -0.892277         2.505008        -0.099052
 H        -2.106981         1.274109        -0.737454
 H        -3.539096         2.624321         0.891970
 H        -1.494069         2.346742         4.032042
 H         0.172745         2.497994         1.872683
 H         0.393097         0.765967         2.756517
 H        -3.454546         1.103683         3.215699
 H        -1.533595        -0.868909         2.415111
 H        -2.680098        -0.565588         1.058906
