19
Iteration:  3091
 O         0.053250        -0.028116         0.208483
 C        -0.752807         0.760606         1.033905
 C        -1.646810         1.792196         0.222190
 C        -2.659577         2.241245         1.241023
 O        -2.019016         3.210098         2.195137
 C        -1.474122         2.085869         2.893409
 C        -0.197517         1.390510         2.236941
 C        -2.673806         1.170582         2.376388
 C        -1.850784         0.002046         1.827099
 H         0.830658        -0.212318         0.798629
 H        -1.036312         2.500857        -0.357322
 H        -2.171864         1.207149        -0.478061
 H        -3.612687         2.588309         0.887652
 H        -1.473989         2.275495         3.943899
 H         0.612827         2.108602         1.995662
 H         0.494732         0.752289         2.834693
 H        -3.541567         1.066425         3.115478
 H        -1.502747        -0.608299         2.700605
 H        -2.515968        -0.622429         1.246126
