19
Iteration:  4789charge 0 multiplicity 1
 O         0.092542        -0.076754         0.222350
 C        -0.761001         0.734134         1.064545
 C        -1.577898         1.800157         0.259380
 C        -2.638864         2.296480         1.340377
 O        -2.001039         3.220199         2.164445
 C        -1.506527         2.052612         2.945525
 C        -0.185491         1.488896         2.373918
 C        -2.641315         1.108799         2.338347
 C        -1.919468        -0.068409         1.650992
 H        -0.166414         0.151100        -0.688300
 H        -0.888542         2.605791        -0.067899
 H        -2.140778         1.421617        -0.622279
 H        -3.701501         2.638887         0.964011
 H        -1.478890         2.262388         4.047269
 H         0.449084         2.354903         2.271608
 H         0.326580         0.750171         3.004102
 H        -3.448869         1.190791         3.111976
 H        -1.627941        -0.778514         2.483246
 H        -2.444900        -0.567282         0.757085
