19
Iteration:  2134charge 0 multiplicity 1
 O         0.079206        -0.044424         0.352594
 C        -0.837631         0.774254         1.029827
 C        -1.690708         1.710026         0.176476
 C        -2.724608         2.147933         1.316480
 O        -1.993405         3.163081         2.063669
 C        -1.413046         2.113481         2.908571
 C        -0.187480         1.665324         2.145952
 C        -2.542733         1.133626         2.453239
 C        -1.902746        -0.075358         1.804146
 H         0.706166        -0.245876         1.071126
 H        -1.132260         2.565611        -0.379434
 H        -2.246726         1.195540        -0.592594
 H        -3.731828         2.330928         0.956677
 H        -1.339324         2.503841         3.989788
 H         0.252900         2.705030         1.815031
 H         0.562162         1.133738         2.836884
 H        -3.441715         1.055383         3.108274
 H        -1.341569        -0.762348         2.471092
 H        -2.504550        -0.733170         1.165306
