19
Iteration:  2827charge 0 multiplicity 1
 O         0.158382        -0.068619         0.160721
 C        -0.782567         0.674407         1.039803
 C        -1.599055         1.699445         0.189371
 C        -2.618245         2.284767         1.272535
 O        -1.972667         3.246618         2.249089
 C        -1.508857         2.071148         2.958072
 C        -0.244088         1.506557         2.237181
 C        -2.655241         1.193518         2.433838
 C        -2.003359        -0.042331         1.749803
 H         0.984476        -0.074509         0.691508
 H        -1.049477         2.519679        -0.141338
 H        -2.106801         1.154394        -0.642330
 H        -3.546998         2.577209         0.955861
 H        -1.340408         2.286185         3.991461
 H         0.283440         2.483094         1.948582
 H         0.309134         0.939762         3.025475
 H        -3.682980         1.097457         2.832185
 H        -1.663258        -0.818811         2.402421
 H        -2.649750        -0.383292         0.933642
