19
Iteration:  3035charge 0 multiplicity 1
 O         0.097411        -0.145833         0.386578
 C        -0.776090         0.768279         1.010453
 C        -1.706079         1.760492         0.168128
 C        -2.657898         2.283183         1.283791
 O        -2.047072         3.216632         2.219882
 C        -1.404362         2.061340         2.936120
 C        -0.161613         1.534214         2.252795
 C        -2.598319         1.157135         2.342858
 C        -1.914418        -0.021079         1.686907
 H         0.568172         0.298756        -0.324616
 H        -1.079898         2.516286        -0.190583
 H        -2.240008         1.238456        -0.622318
 H        -3.583996         2.618204         0.973813
 H        -1.423929         2.170002         3.997755
 H         0.592992         2.320104         1.995719
 H         0.180636         0.615840         2.793525
 H        -3.386607         1.059475         3.113937
 H        -1.698481        -0.660825         2.549428
 H        -2.538090        -0.553079         0.967198
