19
Iteration:  1655charge 0 multiplicity 1
 O        -0.010117        -0.169270         0.338089
 C        -0.733582         0.778614         1.059452
 C        -1.615044         1.798791         0.183617
 C        -2.676696         2.294709         1.213212
 O        -2.079485         3.206215         2.216865
 C        -1.535398         2.134313         2.859345
 C        -0.214423         1.510685         2.292682
 C        -2.579414         1.076742         2.315678
 C        -1.750161        -0.032737         1.804921
 H         0.834842         0.299016         0.144406
 H        -0.941688         2.536638        -0.490092
 H        -2.206044         1.198703        -0.552172
 H        -3.595956         2.713034         0.745867
 H        -1.399521         2.385914         3.972922
 H         0.637893         2.241913         2.155624
 H         0.123404         0.895973         3.055846
 H        -3.592652         1.013590         2.778998
 H        -1.318542        -0.681047         2.642737
 H        -2.288760        -0.652287         1.047054
