19
Iteration:   803charge 0 multiplicity 1
 O         0.167664         0.051599         0.361879
 C        -0.826298         0.746609         1.114698
 C        -1.608054         1.720998         0.181988
 C        -2.627944         2.210271         1.203849
 O        -1.910184         3.200441         2.129697
 C        -1.500235         2.147646         2.995799
 C        -0.229266         1.362967         2.375263
 C        -2.622450         1.152265         2.391089
 C        -2.017014        -0.036091         1.565545
 H         0.853638         0.714066         0.086577
 H        -1.018270         2.543770        -0.322170
 H        -2.333273         1.040782        -0.587433
 H        -3.676476         2.514868         0.865943
 H        -1.490257         2.298667         4.080773
 H         0.469712         2.099372         2.116754
 H         0.113112         0.667186         3.109321
 H        -3.589055         0.923596         2.938826
 H        -1.805047        -0.936859         2.183767
 H        -2.889346        -0.272368         0.851288
