19
Iteration:  3488charge 0 multiplicity 1
 O         0.065075         0.047138         0.203996
 C        -0.767878         0.760241         1.038220
 C        -1.615819         1.736261         0.220973
 C        -2.621007         2.203585         1.303071
 O        -1.897949         3.200940         2.149044
 C        -1.494336         2.093724         2.931192
 C        -0.185673         1.490715         2.339509
 C        -2.688901         1.159053         2.358601
 C        -2.025787        -0.068169         1.733415
 H         0.806509        -0.498499         0.569639
 H        -1.044509         2.741882        -0.118661
 H        -2.112783         1.041464        -0.455872
 H        -3.587571         2.610525         0.851277
 H        -1.457186         2.216381         3.993331
 H         0.401857         2.369093         2.063740
 H         0.279196         0.657197         3.034184
 H        -3.530727         1.045863         3.057633
 H        -1.473185        -0.743082         2.454497
 H        -2.592286        -0.627866         0.920033
