19
Iteration:  2709
 O         0.181538        -0.015083         0.330472
 C        -0.827465         0.726743         1.025244
 C        -1.620682         1.809247         0.140812
 C        -2.658627         2.203722         1.258426
 O        -1.864718         3.209506         2.167223
 C        -1.523611         2.024587         3.004633
 C        -0.225798         1.484283         2.314362
 C        -2.672072         1.187056         2.364877
 C        -1.984778        -0.052135         1.771683
 H         0.004282         0.079204        -0.614003
 H        -1.036157         2.717342        -0.220185
 H        -2.068988         1.241962        -0.724026
 H        -3.654709         2.721475         0.883373
 H        -1.487013         2.195222         4.053535
 H         0.440417         2.288273         2.103291
 H         0.304805         0.645448         2.732910
 H        -3.634217         0.973858         2.827602
 H        -1.597463        -0.743689         2.562086
 H        -2.603751        -0.550882         1.004616
