19
Iteration:    27charge 0 multiplicity 1
 O         0.266382         0.146146         0.341362
 C        -0.795951         0.776881         1.020166
 C        -1.597837         1.920503         0.154181
 C        -2.574858         2.418236         1.206008
 O        -1.818056         3.145225         2.199779
 C        -1.608097         1.911105         2.946018
 C        -0.321689         1.250581         2.472707
 C        -2.759248         1.173858         2.178414
 C        -2.006953        -0.094579         1.709669
 H        -0.052283        -0.736681         0.119173
 H        -0.878658         2.718339         0.023423
 H        -2.021106         1.503596        -0.777027
 H        -3.448351         3.052910         0.880192
 H        -1.716531         2.019366         4.053460
 H         0.600316         1.881790         2.649242
 H        -0.077867         0.254502         3.060875
 H        -3.789761         0.988773         2.613053
 H        -1.609430        -0.634755         2.606653
 H        -2.620075        -0.697757         0.988838
