19
Iteration:  3762
 O         0.215640         0.148222         0.216901
 C        -0.802451         0.714920         1.020405
 C        -1.717417         1.653291         0.202842
 C        -2.646992         2.255911         1.245077
 O        -1.946257         3.174231         2.171551
 C        -1.416120         2.060143         2.971787
 C        -0.222812         1.401451         2.263558
 C        -2.689313         1.235337         2.418514
 C        -1.952402        -0.031615         1.727794
 H         0.343717        -0.726188         0.654846
 H        -1.158723         2.350335        -0.451312
 H        -2.318783         1.078496        -0.518350
 H        -3.544121         2.832447         0.984828
 H        -1.226322         2.355294         3.980997
 H         0.576922         2.144978         2.244883
 H         0.016371         0.666830         3.035124
 H        -3.548537         1.196920         3.156756
 H        -1.739443        -0.793655         2.573007
 H        -2.761731        -0.448633         1.040661
