19
Iteration:  3736charge 0 multiplicity 1
 O         0.034627        -0.023426         0.265706
 C        -0.802334         0.749348         1.030985
 C        -1.654555         1.789753         0.272518
 C        -2.633060         2.243189         1.239362
 O        -1.950800         3.262602         2.220739
 C        -1.490408         2.049189         2.904201
 C        -0.170171         1.513439         2.234215
 C        -2.628243         1.116332         2.320153
 C        -1.884905        -0.119175         1.711130
 H         0.348611        -0.631779         0.977127
 H        -1.091791         2.648575        -0.211979
 H        -2.199153         1.370360        -0.583393
 H        -3.583203         2.711195         0.978891
 H        -1.440039         2.243525         4.013161
 H         0.435432         2.386819         2.085748
 H         0.357448         0.993808         2.997095
 H        -3.428960         1.066527         2.999527
 H        -1.498785        -0.748634         2.476949
 H        -2.505312        -0.688906         1.050285
