19
Iteration:  4832
 O         0.336664         0.116332         0.329713
 C        -0.831902         0.709221         0.952850
 C        -1.750183         1.777107         0.259742
 C        -2.640628         2.336688         1.344983
 O        -1.881214         3.195173         2.170681
 C        -1.444247         1.980277         2.970005
 C        -0.281312         1.427935         2.251638
 C        -2.680422         1.234064         2.354803
 C        -2.040838        -0.154900         1.711838
 H         0.128065        -0.543894        -0.346756
 H        -1.259868         2.598036        -0.246718
 H        -2.262506         1.263048        -0.555992
 H        -3.498759         2.840636         0.775420
 H        -1.337368         2.249285         4.045227
 H         0.390814         2.258151         2.076536
 H         0.101550         0.639655         2.922864
 H        -3.624884         0.887118         2.884247
 H        -1.642126        -0.895805         2.438378
 H        -2.663366        -0.715306         0.980401
