19
Iteration:  2656charge 0 multiplicity 1
 O         0.238986        -0.077049         0.330483
 C        -0.802177         0.732261         0.934035
 C        -1.536214         1.810598         0.231949
 C        -2.588027         2.297374         1.311208
 O        -2.045467         3.241357         2.244932
 C        -1.527643         1.979059         2.887969
 C        -0.262010         1.449329         2.165110
 C        -2.656320         1.218958         2.384592
 C        -1.995742        -0.010729         1.760121
 H        -0.183642        -0.934141         0.180950
 H        -0.992288         2.810041         0.090702
 H        -1.964830         1.564038        -0.706220
 H        -3.496258         2.810602         0.784039
 H        -1.373487         2.147223         3.949077
 H         0.281374         2.331109         1.983741
 H         0.078416         0.580992         2.813349
 H        -3.440294         1.055111         3.024369
 H        -1.473715        -0.665634         2.510658
 H        -2.537500        -0.765438         1.188262
