19
Iteration:  1526charge 0 multiplicity 1
 O         0.215471        -0.033218         0.322053
 C        -0.794932         0.666668         1.020872
 C        -1.483100         1.702134         0.256505
 C        -2.562356         2.293601         1.269165
 O        -2.136140         3.242367         2.227366
 C        -1.526487         2.083160         2.888685
 C        -0.243863         1.564707         2.199036
 C        -2.665384         1.141654         2.437494
 C        -1.987642        -0.033415         1.658333
 H         0.175699        -0.962689         0.640777
 H        -0.829686         2.556153        -0.152307
 H        -2.045660         1.295223        -0.547010
 H        -3.537040         2.578108         0.700135
 H        -1.326900         2.416755         3.946982
 H         0.409196         2.457086         1.838649
 H         0.402463         0.850510         2.861379
 H        -3.564717         1.064545         3.110625
 H        -1.531794        -0.880197         2.229066
 H        -2.684912        -0.458178         0.946679
