19
Iteration:  1864
 O         0.168134        -0.023131         0.167404
 C        -0.758733         0.678501         1.051612
 C        -1.619735         1.695788         0.214837
 C        -2.707004         2.235685         1.292022
 O        -2.054426         3.309797         2.129974
 C        -1.527562         2.158410         2.849019
 C        -0.201912         1.498678         2.261573
 C        -2.645407         1.190970         2.440181
 C        -1.919363        -0.154968         1.843983
 H         1.047317         0.017815         0.565765
 H        -0.976386         2.547184        -0.219099
 H        -2.042366         1.143263        -0.574061
 H        -3.622613         2.528262         0.709343
 H        -1.371284         2.347314         3.928077
 H         0.741383         2.117212         2.089173
 H         0.017089         0.886285         3.168504
 H        -3.446016         1.036343         3.094132
 H        -1.500785        -0.625308         2.829883
 H        -2.543692        -0.935878         1.325049
