19
Iteration:  2835
 O         0.150109        -0.015218         0.175679
 C        -0.820975         0.669742         1.011762
 C        -1.634027         1.681673         0.280165
 C        -2.655410         2.233935         1.298288
 O        -1.901203         3.231449         2.179817
 C        -1.515432         2.081777         3.031796
 C        -0.264815         1.510050         2.289172
 C        -2.644840         1.199046         2.331583
 C        -1.969653        -0.034240         1.695795
 H         0.881588        -0.161055         0.799917
 H        -1.032162         2.436758        -0.192197
 H        -2.205450         1.201064        -0.539814
 H        -3.585908         2.570393         0.863601
 H        -1.365298         2.443581         4.100769
 H         0.407506         2.354521         1.864472
 H         0.523831         1.038105         2.984493
 H        -3.534503         1.109612         3.005656
 H        -1.748372        -0.856003         2.368818
 H        -2.689897        -0.420175         0.913250
