19
Iteration:  2744charge 0 multiplicity 1
 O         0.150038         0.081223         0.348605
 C        -0.839766         0.712553         1.082807
 C        -1.619139         1.663761         0.219668
 C        -2.628641         2.288433         1.263054
 O        -1.886895         3.299728         2.190339
 C        -1.481570         2.057373         2.937651
 C        -0.215220         1.380618         2.237268
 C        -2.671019         1.185787         2.295210
 C        -1.984011        -0.120157         1.757367
 H         0.210937         0.552323        -0.485723
 H        -1.162086         2.577747        -0.358877
 H        -2.173566         1.073564        -0.509475
 H        -3.642801         2.652432         0.719758
 H        -1.480740         2.230618         4.052867
 H         0.579585         2.115619         2.131343
 H         0.144207         0.571528         2.973486
 H        -3.498972         0.985749         2.939138
 H        -1.811587        -0.912054         2.565259
 H        -2.523550        -0.676567         0.963537
