19
Iteration:  4749
 O         0.029857        -0.050234         0.377134
 C        -0.844897         0.743007         1.006631
 C        -1.552923         1.799985         0.153820
 C        -2.577258         2.325356         1.343494
 O        -2.063644         3.195266         2.282534
 C        -1.430762         1.943670         2.919198
 C        -0.197202         1.538948         2.155921
 C        -2.610881         1.131024         2.345296
 C        -1.987983        -0.074393         1.696067
 H         0.725439         0.470756        -0.075365
 H        -0.785983         2.662175        -0.090587
 H        -2.036762         1.250223        -0.669446
 H        -3.504555         2.768330         0.968042
 H        -1.475285         2.009323         4.016724
 H         0.621336         2.239098         1.824726
 H         0.423126         1.015732         2.947354
 H        -3.511759         0.947612         2.868528
 H        -1.319971        -0.620963         2.356874
 H        -2.610474        -0.677186         0.984851
