19
Iteration:    44
 O         0.240366         0.122976         0.370856
 C        -0.820812         0.731292         1.122337
 C        -1.489665         1.782946         0.295294
 C        -2.567921         2.355728         1.228807
 O        -1.823115         3.173928         2.226386
 C        -1.605762         1.942314         2.967711
 C        -0.337482         1.359652         2.406487
 C        -2.727652         1.152367         2.239317
 C        -2.060830        -0.022326         1.500059
 H        -0.112086        -0.297643        -0.435946
 H        -0.854018         2.516729        -0.220878
 H        -2.014516         1.232761        -0.521897
 H        -3.377423         2.850471         0.725840
 H        -1.687165         2.073166         4.039352
 H         0.362679         2.155192         2.228833
 H         0.022435         0.596199         3.033768
 H        -3.603139         1.107220         2.842737
 H        -1.910023        -0.892819         2.119277
 H        -2.596766        -0.428260         0.648195
