19
Iteration:     3charge 0 multiplicity 1
 O         0.160820         0.061030         0.296450
 C        -0.807441         0.727177         1.072925
 C        -1.458498         1.902641         0.234626
 C        -2.533086         2.361202         1.219233
 O        -1.918518         3.159365         2.267907
 C        -1.602110         1.950756         2.988155
 C        -0.299559         1.344017         2.401309
 C        -2.729888         1.173123         2.192741
 C        -2.046311        -0.043519         1.555139
 H         0.549782        -0.643470         0.835322
 H        -0.853056         2.685825        -0.054744
 H        -1.916073         1.419187        -0.650486
 H        -3.457245         2.799630         0.807837
 H        -1.585660         2.159554         4.072412
 H         0.496124         2.095970         2.238514
 H         0.154375         0.523467         3.064143
 H        -3.649254         1.019945         2.745409
 H        -1.729744        -0.786516         2.320913
 H        -2.589824        -0.497688         0.744523
