19
Iteration:  2089charge 0 multiplicity 1
 O         0.176997         0.074216         0.149799
 C        -0.755045         0.675934         1.123754
 C        -1.810414         1.657885         0.237051
 C        -2.661462         2.230460         1.305229
 O        -2.031804         3.325533         2.008009
 C        -1.475773         2.184270         2.889586
 C        -0.207412         1.524437         2.332742
 C        -2.593499         1.105485         2.404619
 C        -1.827040        -0.135834         1.865088
 H         0.370464        -0.849179         0.415492
 H        -1.379785         2.391568        -0.435651
 H        -2.242560         0.885103        -0.397930
 H        -3.532401         2.594690         0.789685
 H        -1.447262         2.442241         4.014362
 H         0.558867         2.206575         1.847210
 H         0.194402         0.825664         3.123274
 H        -3.479511         1.099487         3.180514
 H        -1.423674        -0.650375         2.768096
 H        -2.400371        -0.958209         1.386239
