19
Iteration:  2675
 O         0.212966        -0.129961         0.323682
 C        -0.778224         0.672701         1.081510
 C        -1.599470         1.867176         0.238530
 C        -2.695934         2.296137         1.243985
 O        -2.060931         3.254279         2.272816
 C        -1.445908         2.104990         2.942816
 C        -0.148842         1.507807         2.272934
 C        -2.630994         1.141149         2.299624
 C        -1.978264        -0.068798         1.657231
 H        -0.256371        -0.773819        -0.213830
 H        -0.917633         2.590220        -0.174212
 H        -2.154584         1.398575        -0.639748
 H        -3.643484         2.851177         0.926182
 H        -1.374159         2.254154         3.983942
 H         0.565140         2.217792         1.822133
 H         0.390969         0.854857         2.874801
 H        -3.581387         1.028989         2.881747
 H        -1.869536        -0.880188         2.376670
 H        -2.681065        -0.501084         0.912010
