19
Iteration:  1086
 O         0.217147         0.086772         0.425818
 C        -0.820473         0.721831         1.067865
 C        -1.614110         1.710337         0.197251
 C        -2.661827         2.225894         1.253108
 O        -1.945554         3.179307         2.071144
 C        -1.497376         2.096766         2.956109
 C        -0.238545         1.427820         2.370174
 C        -2.604376         1.148338         2.387441
 C        -2.010694        -0.046330         1.616616
 H        -0.074183         0.199372        -0.501750
 H        -0.882548         2.453183        -0.254547
 H        -2.201316         1.085435        -0.539119
 H        -3.648684         2.738534         0.931991
 H        -1.542847         2.423587         4.041101
 H         0.542495         2.136182         2.089056
 H         0.122388         0.611582         2.915344
 H        -3.438904         1.077348         3.181858
 H        -1.630936        -0.809935         2.301520
 H        -2.642424        -0.306634         0.830424
