19
Iteration:   862charge 0 multiplicity 1
 O         0.107988        -0.057272         0.253633
 C        -0.754964         0.734104         1.053030
 C        -1.486293         1.727365         0.202687
 C        -2.548326         2.311814         1.216771
 O        -2.093664         3.199241         2.316476
 C        -1.531001         2.046622         2.971180
 C        -0.251647         1.609673         2.245863
 C        -2.657641         1.175158         2.311207
 C        -1.975159        -0.086669         1.684333
 H         0.473387        -0.711967         0.903186
 H        -0.674494         2.364667        -0.372521
 H        -2.176230         1.188861        -0.653455
 H        -3.427654         2.686957         0.743808
 H        -1.522805         2.041969         4.092034
 H         0.421312         2.478593         1.923065
 H         0.424985         1.007500         2.910283
 H        -3.534313         1.274194         2.939747
 H        -1.611569        -0.848576         2.428849
 H        -2.573967        -0.684853         0.867978
