19
Iteration:  1974
 O         0.096610        -0.033163         0.272005
 C        -0.816147         0.820973         1.120720
 C        -1.691187         1.707097         0.300616
 C        -2.720976         2.135682         1.311978
 O        -1.883510         3.232853         1.935541
 C        -1.489670         2.166591         2.896596
 C        -0.140151         1.558424         2.290189
 C        -2.687796         1.057941         2.463920
 C        -1.879862        -0.108954         1.813257
 H         0.705190         0.572086        -0.220260
 H        -1.131608         2.536798        -0.156041
 H        -2.169841         1.077648        -0.419692
 H        -3.649919         2.565337         0.841465
 H        -1.582898         2.613874         3.858119
 H         0.412040         2.453551         1.922238
 H         0.360644         0.910470         3.111548
 H        -3.569980         0.890382         2.953022
 H        -1.565944        -0.964694         2.449567
 H        -2.533699        -0.625692         1.094650
