19
Iteration:  3515charge 0 multiplicity 1
 O         0.142859         0.183019         0.250571
 C        -0.876249         0.747447         1.057387
 C        -1.733789         1.713810         0.207433
 C        -2.664510         2.306036         1.250112
 O        -1.837583         3.154488         2.097657
 C        -1.467431         2.098781         2.922488
 C        -0.213777         1.410460         2.344067
 C        -2.651443         1.183163         2.381932
 C        -1.978514        -0.167419         1.762804
 H         0.699145        -0.565691         0.592327
 H        -1.086254         2.466375        -0.088519
 H        -2.212173         1.068057        -0.602245
 H        -3.531304         2.832823         0.884721
 H        -1.425500         2.323940         4.045093
 H         0.602988         2.172567         2.210498
 H         0.203192         0.613272         2.893398
 H        -3.428787         1.044988         3.155816
 H        -1.513035        -0.946309         2.343745
 H        -2.591742        -0.625991         0.996545
