19
Iteration:  3737
 O         0.037423        -0.015900         0.269626
 C        -0.804861         0.752345         1.034453
 C        -1.658908         1.783205         0.265320
 C        -2.638416         2.248855         1.237180
 O        -1.952477         3.266763         2.220687
 C        -1.488839         2.046496         2.908469
 C        -0.155551         1.501734         2.238947
 C        -2.619002         1.109545         2.313996
 C        -1.894534        -0.114573         1.715520
 H         0.350000        -0.639499         0.966456
 H        -1.099000         2.656737        -0.241658
 H        -2.211048         1.364350        -0.572110
 H        -3.600692         2.714044         0.989552
 H        -1.464101         2.254347         3.990803
 H         0.417971         2.366244         2.066050
 H         0.338175         0.981546         2.993742
 H        -3.410030         1.079660         2.989622
 H        -1.474949        -0.747704         2.497862
 H        -2.512351        -0.691333         1.025955
