19
Iteration:   563
 O         0.141091         0.108686         0.262382
 C        -0.827919         0.731970         1.030957
 C        -1.555256         1.709856         0.179479
 C        -2.467687         2.394339         1.224911
 O        -1.899591         3.158030         2.219545
 C        -1.585367         1.966282         3.030837
 C        -0.239592         1.453374         2.397258
 C        -2.739792         1.133435         2.234698
 C        -2.050131        -0.068135         1.656344
 H         1.013973        -0.065610         0.682663
 H        -0.959971         2.453216        -0.368697
 H        -2.240658         1.105376        -0.387539
 H        -3.393263         3.004422         0.926727
 H        -1.642761         2.107685         4.119353
 H         0.430392         2.324642         2.273267
 H         0.240968         0.569690         2.981890
 H        -3.720377         1.117880         2.743751
 H        -1.791311        -0.797518         2.491819
 H        -2.637702        -0.655757         0.892371
