19
Iteration:  2616charge 0 multiplicity 1
 O         0.168667         0.058846         0.227250
 C        -0.750600         0.764898         1.090899
 C        -1.647997         1.702102         0.298782
 C        -2.656779         2.285437         1.263206
 O        -1.859813         3.225668         2.120939
 C        -1.512873         2.011047         2.948237
 C        -0.233192         1.470392         2.390794
 C        -2.676798         1.135456         2.326911
 C        -1.987930        -0.003499         1.650103
 H        -0.191454        -0.838387         0.152027
 H        -1.089629         2.424165        -0.372954
 H        -2.214990         0.994872        -0.357866
 H        -3.474282         2.652987         0.681569
 H        -1.459126         2.103552         4.106526
 H         0.412723         2.408154         2.208557
 H         0.241248         0.657619         3.130721
 H        -3.507589         1.022197         3.087031
 H        -1.826023        -0.752549         2.454532
 H        -2.655648        -0.323888         0.832925
