19
Iteration:  3659
 O         0.182467         0.094566         0.211121
 C        -0.841978         0.775286         1.049688
 C        -1.753552         1.740697         0.158767
 C        -2.638946         2.194109         1.234694
 O        -1.816149         3.189706         2.087924
 C        -1.478771         1.999476         3.016792
 C        -0.253462         1.470819         2.316955
 C        -2.614756         1.160571         2.399625
 C        -2.014705        -0.054025         1.788199
 H         0.674020        -0.482193         0.827859
 H        -1.262697         2.776351        -0.084068
 H        -2.409098         1.212186        -0.622629
 H        -3.619822         2.648300         0.981402
 H        -1.645919         2.268525         4.133814
 H         0.520740         2.247054         2.205886
 H         0.309240         0.768419         2.871139
 H        -3.559532         1.268037         2.971202
 H        -1.455613        -0.814025         2.340110
 H        -2.679154        -0.599915         1.128640
