19
Iteration:  1879charge 0 multiplicity 1
 O         0.088367        -0.030498         0.265433
 C        -0.812493         0.721199         1.049799
 C        -1.652112         1.713662         0.196073
 C        -2.652214         2.192237         1.207395
 O        -2.132433         3.236414         2.133001
 C        -1.435800         2.175928         2.924649
 C        -0.196160         1.524816         2.325906
 C        -2.486359         1.151097         2.362629
 C        -1.871980        -0.035980         1.802284
 H         0.638409        -0.573222         0.864211
 H        -1.086833         2.499141        -0.212234
 H        -2.231413         1.121461        -0.598377
 H        -3.681933         2.466120         0.931347
 H        -1.367155         2.459628         3.965179
 H         0.480338         2.242969         2.012643
 H         0.257360         0.780694         2.936229
 H        -3.418246         1.060541         2.968722
 H        -1.474544        -0.852448         2.369017
 H        -2.557214        -0.527596         1.082768
