19
Iteration:  1990
 O         0.030128        -0.015682         0.309704
 C        -0.801120         0.749069         1.098023
 C        -1.708929         1.659984         0.212178
 C        -2.705019         2.210626         1.248411
 O        -1.937754         3.147080         2.030691
 C        -1.485636         2.113072         2.910113
 C        -0.238764         1.604864         2.276786
 C        -2.559870         1.157853         2.390299
 C        -1.855517        -0.052954         1.820111
 H         0.929745         0.375954         0.350518
 H        -1.234039         2.564872        -0.202580
 H        -2.072741         1.103479        -0.691460
 H        -3.686299         2.568123         0.973303
 H        -1.275113         2.325858         4.000398
 H         0.426481         2.394598         1.948642
 H         0.342213         0.987056         2.893007
 H        -3.391543         0.933103         3.193260
 H        -1.342744        -0.619180         2.612325
 H        -2.350904        -0.768401         1.124445
