19
Iteration:  2696
 O         0.070049        -0.008887         0.399222
 C        -0.823102         0.818795         1.079591
 C        -1.574956         1.724636         0.246407
 C        -2.572898         2.279552         1.259949
 O        -1.960519         3.206579         2.180983
 C        -1.487740         2.011809         2.924447
 C        -0.214873         1.509569         2.268923
 C        -2.613147         1.108854         2.364046
 C        -1.958680        -0.048632         1.632815
 H        -0.271941        -0.183906        -0.508360
 H        -0.938614         2.438794        -0.225616
 H        -2.145923         1.165014        -0.581057
 H        -3.557568         2.597650         0.868924
 H        -1.436852         2.184930         3.967023
 H         0.545434         2.286114         2.046257
 H         0.285064         0.909815         2.970751
 H        -3.542377         1.201739         3.011275
 H        -1.534858        -0.894263         2.157410
 H        -2.633940        -0.440756         0.830471
