19
Iteration:  3447
 O         0.151932        -0.161766         0.233162
 C        -0.788433         0.716770         0.998380
 C        -1.573527         1.805294         0.273421
 C        -2.652874         2.281069         1.280718
 O        -2.043892         3.284610         2.314011
 C        -1.489826         2.042540         2.890748
 C        -0.190388         1.560908         2.154872
 C        -2.665723         1.124605         2.329678
 C        -1.972907        -0.079398         1.717500
 H         0.467749        -0.590615         1.048565
 H        -0.921608         2.697921        -0.008517
 H        -2.152283         1.437175        -0.641966
 H        -3.579604         2.832279         0.975272
 H        -1.261117         2.294425         3.964217
 H         0.535189         2.316952         1.902736
 H         0.432987         1.060193         2.847609
 H        -3.568055         1.294035         2.964537
 H        -1.636355        -0.654467         2.530982
 H        -2.472866        -0.797188         1.037324
