19
Iteration:  4288charge 0 multiplicity 1
 O         0.161935         0.162974         0.350100
 C        -0.810486         0.756611         1.059668
 C        -1.731409         1.740806         0.172478
 C        -2.639210         2.317786         1.352887
 O        -1.866149         3.178340         2.230954
 C        -1.431557         1.938558         2.946003
 C        -0.167720         1.453740         2.222870
 C        -2.695150         1.176945         2.305038
 C        -1.970829        -0.088804         1.641368
 H         0.080874        -0.744845         0.036805
 H        -1.244391         2.414040        -0.440214
 H        -2.264257         1.012500        -0.501835
 H        -3.629764         2.775358         1.097661
 H        -1.406743         2.192541         3.971074
 H         0.520508         2.307195         2.103108
 H         0.177317         0.689981         2.876882
 H        -3.711875         1.086393         2.785291
 H        -1.812102        -0.650768         2.551743
 H        -2.502945        -0.798871         0.947119
