19
Iteration:    91charge 0 multiplicity 1
 O         0.069573        -0.195590         0.383720
 C        -0.754627         0.756018         1.008839
 C        -1.423913         1.982098         0.262378
 C        -2.580720         2.378893         1.257677
 O        -2.049419         3.235088         2.332672
 C        -1.603198         1.972040         2.928611
 C        -0.292176         1.340026         2.280052
 C        -2.701990         1.123622         2.184402
 C        -1.884069         0.023469         1.573324
 H         0.999993        -0.044677         0.522917
 H        -0.898300         2.854366         0.116665
 H        -1.820141         1.622405        -0.715655
 H        -3.504794         2.793911         0.797873
 H        -1.429175         2.087431         4.026796
 H         0.339942         2.214897         2.094799
 H         0.069862         0.571312         3.015921
 H        -3.724072         0.930072         2.617466
 H        -1.399620        -0.689723         2.280919
 H        -2.502631        -0.608419         0.964809
