19
Iteration:  3255charge 0 multiplicity 1
 O         0.113563         0.124682         0.241340
 C        -0.834986         0.775347         1.067329
 C        -1.779278         1.701058         0.187463
 C        -2.661647         2.278543         1.274809
 O        -1.917398         3.238662         2.073887
 C        -1.505057         2.027634         2.916010
 C        -0.132287         1.358267         2.412505
 C        -2.612581         1.154754         2.352865
 C        -1.939177        -0.044554         1.757677
 H         0.730111        -0.391191         0.747773
 H        -1.237895         2.481588        -0.406985
 H        -2.304720         0.916712        -0.446026
 H        -3.559130         2.719150         0.957782
 H        -1.396748         2.310858         3.940937
 H         0.718813         2.022549         2.234602
 H         0.423248         0.542749         2.730818
 H        -3.375560         1.201781         3.139872
 H        -1.473711        -0.733070         2.512321
 H        -2.514198        -0.605941         1.038477
