19
Iteration:  1305charge 0 multiplicity 1
 O         0.181722        -0.004354         0.394989
 C        -0.794501         0.744245         1.065122
 C        -1.580759         1.732975         0.255857
 C        -2.645088         2.300834         1.260961
 O        -1.970574         3.186535         2.151641
 C        -1.502641         2.031544         2.929301
 C        -0.211327         1.516828         2.351976
 C        -2.693833         1.121457         2.245479
 C        -1.969470        -0.014905         1.681298
 H        -0.082666        -0.416951        -0.454933
 H        -0.972672         2.500818        -0.266521
 H        -1.980368         1.192081        -0.554506
 H        -3.548892         2.823324         0.810864
 H        -1.626541         2.356532         3.978693
 H         0.420262         2.437299         2.162319
 H         0.368731         0.738570         2.889423
 H        -3.549910         0.868514         2.849129
 H        -1.637805        -0.661894         2.542889
 H        -2.420837        -0.665303         0.948042
