19
Iteration:  4444
 O         0.103914         0.157929         0.193543
 C        -0.807409         0.792102         1.039381
 C        -1.636137         1.710701         0.233738
 C        -2.680553         2.193047         1.211845
 O        -1.914634         3.162051         2.138344
 C        -1.432909         2.073727         3.032507
 C        -0.200894         1.384397         2.310917
 C        -2.599335         1.142907         2.416854
 C        -2.074240        -0.069237         1.693316
 H         0.790750        -0.234056         0.746563
 H        -1.071170         2.660194        -0.050178
 H        -2.114291         1.294115        -0.634873
 H        -3.610998         2.488086         0.783525
 H        -1.230737         2.375257         4.131718
 H         0.567142         2.252591         2.280689
 H         0.199676         0.758398         3.018334
 H        -3.518651         1.195705         2.955342
 H        -1.526288        -0.795812         2.353989
 H        -2.765561        -0.562041         0.958688
