19
Iteration:   988
 O         0.101374        -0.165224         0.429553
 C        -0.799598         0.805566         1.014140
 C        -1.575904         1.941946         0.137051
 C        -2.668863         2.285209         1.296445
 O        -2.044258         3.186989         2.176767
 C        -1.544710         2.081146         2.861518
 C        -0.254748         1.458796         2.186128
 C        -2.588300         1.096717         2.402762
 C        -1.879102        -0.049222         1.714294
 H         0.995372         0.253322         0.497506
 H        -0.895911         2.825862         0.006838
 H        -1.980971         1.459550        -0.775890
 H        -3.744194         2.481395         0.933976
 H        -1.357629         2.334783         3.942984
 H         0.615633         2.167050         2.081259
 H         0.047671         0.521212         2.866885
 H        -3.476207         0.776214         3.065347
 H        -1.463299        -0.714329         2.540381
 H        -2.355627        -0.616191         0.915583
