19
Iteration:  1051charge 0 multiplicity 1
 O         0.167102         0.006780         0.325373
 C        -0.817131         0.710585         1.094209
 C        -1.629816         1.761814         0.184041
 C        -2.601599         2.275407         1.224987
 O        -1.925268         3.194945         2.142905
 C        -1.581799         2.049897         2.961140
 C        -0.257854         1.465264         2.322855
 C        -2.651620         1.148730         2.276435
 C        -1.932866        -0.072751         1.761940
 H         0.508142         0.500655        -0.437814
 H        -0.995848         2.523979        -0.278893
 H        -2.203405         1.240132        -0.661588
 H        -3.501966         2.837368         1.008521
 H        -1.637137         2.240371         4.062263
 H         0.409772         2.283701         2.230508
 H         0.266850         0.773446         2.846619
 H        -3.526169         1.027668         2.989108
 H        -1.570595        -0.547255         2.661915
 H        -2.372931        -0.896813         1.304092
