19
Iteration:  3251charge 0 multiplicity 1
 O         0.100741         0.135002         0.268910
 C        -0.832211         0.755144         1.029652
 C        -1.786974         1.722064         0.179243
 C        -2.642515         2.272461         1.274318
 O        -1.916724         3.252663         2.090462
 C        -1.466115         2.059793         2.914073
 C        -0.142091         1.354184         2.368833
 C        -2.617013         1.140736         2.337312
 C        -1.927520        -0.064881         1.786136
 H         0.772409        -0.314202         0.852394
 H        -1.227214         2.388304        -0.377688
 H        -2.322152         0.969255        -0.402901
 H        -3.665961         2.627817         0.940499
 H        -1.456276         2.283481         4.039217
 H         0.715237         2.089358         2.239731
 H         0.269086         0.356933         2.862743
 H        -3.497089         1.126398         3.059340
 H        -1.452434        -0.737215         2.483761
 H        -2.535214        -0.573382         0.994176
