19
Iteration:  4221charge 0 multiplicity 1
 O        -0.017525        -0.055427         0.200354
 C        -0.755295         0.743227         1.075025
 C        -1.507350         1.883736         0.199598
 C        -2.661686         2.334282         1.280422
 O        -2.069762         3.158886         2.241708
 C        -1.487834         1.942002         2.942200
 C        -0.131952         1.491827         2.276024
 C        -2.634449         1.148104         2.333249
 C        -1.937885        -0.018683         1.749936
 H         0.919811        -0.274891         0.357177
 H        -0.904985         2.679764        -0.170417
 H        -1.895256         1.300357        -0.675770
 H        -3.700693         2.738893         1.003193
 H        -1.259910         2.010685         3.973280
 H         0.517038         2.353807         1.988881
 H         0.396929         0.872722         3.030826
 H        -3.581107         1.070289         2.880476
 H        -1.518528        -0.826303         2.314567
 H        -2.617258        -0.593275         1.071090
