19
Iteration:  1624
 O         0.174112        -0.062874         0.431297
 C        -0.799432         0.691219         1.052337
 C        -1.631082         1.742721         0.232292
 C        -2.686579         2.154791         1.305403
 O        -1.975473         3.220875         2.144817
 C        -1.535866         2.094211         2.876623
 C        -0.193096         1.562267         2.211898
 C        -2.612760         1.156186         2.371177
 C        -1.949296        -0.024937         1.717183
 H         0.329690         0.220182        -0.477519
 H        -0.843607         2.616707         0.038048
 H        -2.073543         1.361736        -0.717958
 H        -3.678679         2.497925         0.847187
 H        -1.395931         2.317435         3.977592
 H         0.486108         2.411992         1.926863
 H         0.391507         0.969432         2.996049
 H        -3.621326         1.076531         2.868445
 H        -1.770866        -0.884633         2.348261
 H        -2.530475        -0.357013         0.905446
