19
Iteration:  3029
 O         0.109277        -0.078306         0.408287
 C        -0.846266         0.746467         1.018938
 C        -1.728807         1.763871         0.161061
 C        -2.680191         2.315856         1.284463
 O        -1.998424         3.226853         2.228429
 C        -1.431232         2.072362         2.885218
 C        -0.134398         1.494161         2.269699
 C        -2.590525         1.132291         2.304019
 C        -1.903504        -0.055863         1.739122
 H         0.561222         0.136696        -0.431750
 H        -1.091299         2.613011        -0.417790
 H        -2.253721         1.237153        -0.665090
 H        -3.704335         2.765323         0.876417
 H        -1.390362         2.237110         4.004249
 H         0.647433         2.202460         2.081892
 H         0.133518         0.656375         2.978760
 H        -3.314745         0.957930         3.120061
 H        -1.586330        -0.852939         2.466590
 H        -2.425477        -0.677218         0.981069
