19
Iteration:  2245charge 0 multiplicity 1
 O         0.209197         0.107147         0.327751
 C        -0.848627         0.721438         1.006191
 C        -1.722372         1.564765         0.168993
 C        -2.668727         2.268752         1.301502
 O        -2.036103         3.274367         2.121163
 C        -1.425859         2.147944         2.904300
 C        -0.265404         1.500693         2.189555
 C        -2.531749         1.132357         2.456267
 C        -1.922304        -0.101936         1.813394
 H         0.102797        -0.816237         0.638918
 H        -1.211479         2.375573        -0.427372
 H        -2.201563         0.960745        -0.523358
 H        -3.602935         2.559656         0.864519
 H        -1.273720         2.496159         3.959511
 H         0.572607         2.256519         1.834123
 H         0.347305         0.894724         2.878739
 H        -3.378281         1.012211         3.026692
 H        -1.250898        -0.750455         2.374553
 H        -2.680363        -0.609125         1.231889
