19
Iteration:  1368charge 0 multiplicity 1
 O         0.254062        -0.008620         0.406140
 C        -0.792906         0.743195         1.016007
 C        -1.541200         1.820504         0.257387
 C        -2.683282         2.324189         1.214495
 O        -2.087704         3.228842         2.173335
 C        -1.487774         2.108077         2.839873
 C        -0.223516         1.379406         2.289238
 C        -2.630143         1.164156         2.323871
 C        -1.961974        -0.108365         1.767910
 H        -0.133183        -0.505290        -0.347801
 H        -0.891320         2.640929        -0.013965
 H        -2.019612         1.270515        -0.648699
 H        -3.608943         2.568554         0.801523
 H        -1.448180         2.192228         3.889700
 H         0.622290         2.116086         2.261013
 H         0.252254         0.607423         2.982744
 H        -3.563784         1.172965         2.977813
 H        -1.863613        -0.916599         2.474444
 H        -2.581083        -0.556023         0.975005
