19
Iteration:   213
 O         0.027098        -0.130574         0.227684
 C        -0.712150         0.667796         1.116954
 C        -1.432447         1.843857         0.270598
 C        -2.555810         2.346613         1.206796
 O        -2.048864         3.251189         2.321961
 C        -1.610347         1.957957         2.985478
 C        -0.213903         1.530097         2.309455
 C        -2.658036         1.163141         2.204302
 C        -1.978499        -0.062124         1.674749
 H         0.877398         0.334913         0.148497
 H        -0.678055         2.582186        -0.025706
 H        -1.802269         1.236700        -0.559410
 H        -3.514259         2.700757         0.734025
 H        -1.703300         1.969083         4.094043
 H         0.248480         2.373797         1.790801
 H         0.309111         0.970388         3.100754
 H        -3.626632         1.097029         2.713948
 H        -1.770792        -0.912782         2.369315
 H        -2.490548        -0.372920         0.749399
