19
Iteration:  2431
 O         0.215796        -0.111411         0.364217
 C        -0.793176         0.711872         1.022178
 C        -1.568770         1.780327         0.176820
 C        -2.678300         2.239487         1.345207
 O        -1.990402         3.206926         2.171394
 C        -1.518283         2.106653         2.900726
 C        -0.213577         1.568927         2.167877
 C        -2.696875         1.147531         2.404725
 C        -1.974609        -0.063013         1.772635
 H        -0.061916        -0.352800        -0.550554
 H        -0.967849         2.730306        -0.024614
 H        -2.078853         1.378453        -0.719090
 H        -3.605553         2.648858         0.976164
 H        -1.402597         2.264006         4.034098
 H         0.490295         2.445607         1.880192
 H         0.461854         0.928016         2.708230
 H        -3.571217         1.085133         3.056194
 H        -1.404996        -0.556016         2.606196
 H        -2.568216        -0.723643         1.111411
