19
Iteration:  2902charge 0 multiplicity 1
 O         0.116217         0.007649         0.225885
 C        -0.777259         0.688818         1.121198
 C        -1.560901         1.736389         0.259534
 C        -2.679637         2.260512         1.264598
 O        -1.981151         3.284295         2.265659
 C        -1.437913         2.123624         2.883477
 C        -0.259395         1.577348         2.243531
 C        -2.661531         1.139121         2.351453
 C        -1.927807        -0.191001         1.711715
 H        -0.074982        -0.937608         0.205612
 H        -0.947328         2.421454        -0.186681
 H        -2.132864         1.178818        -0.528024
 H        -3.502685         2.700328         0.815210
 H        -1.419645         2.140829         3.992611
 H         0.480534         2.403147         1.856367
 H         0.525662         1.049018         2.875815
 H        -3.530095         1.029515         3.028957
 H        -1.797200        -1.006015         2.384955
 H        -2.534731        -0.379031         0.792639
