19
Iteration:   428
 O         0.158012         0.008989         0.298824
 C        -0.738189         0.734123         1.097971
 C        -1.537869         1.773580         0.246947
 C        -2.591564         2.271074         1.280354
 O        -1.918504         3.218056         2.128731
 C        -1.562279         2.030680         2.996040
 C        -0.307293         1.386802         2.544751
 C        -2.630208         1.149756         2.313297
 C        -2.035815        -0.041221         1.492570
 H         0.400115         0.654191        -0.383397
 H        -1.033644         2.583004        -0.146094
 H        -1.809050         1.165793        -0.593373
 H        -3.605520         2.585776         1.068513
 H        -1.543130         2.287937         4.076508
 H         0.431093         2.081639         2.077817
 H         0.216770         0.616690         3.141543
 H        -3.617466         1.001899         2.805399
 H        -2.268654        -1.013018         2.015040
 H        -2.584671         0.024374         0.565601
