19
Iteration:  2823charge 0 multiplicity 1
 O         0.148895        -0.085854         0.181085
 C        -0.773686         0.700134         1.062866
 C        -1.593330         1.723306         0.155399
 C        -2.579507         2.302548         1.267323
 O        -2.022692         3.246407         2.267502
 C        -1.503017         2.064345         2.903267
 C        -0.226579         1.515795         2.217125
 C        -2.644498         1.175686         2.464061
 C        -2.020224        -0.048291         1.773268
 H         1.046459        -0.093091         0.549755
 H        -0.974893         2.596085        -0.212767
 H        -2.049044         1.193381        -0.681579
 H        -3.578081         2.740478         0.918127
 H        -1.338744         2.160645         4.040498
 H         0.303178         2.464057         1.953893
 H         0.240570         0.782122         2.961637
 H        -3.670731         1.063653         2.852772
 H        -1.661121        -0.862251         2.445459
 H        -2.676511        -0.535297         0.998566
