19
Iteration:     6charge 0 multiplicity 1
 O         0.172239         0.070271         0.296506
 C        -0.820177         0.710690         1.083010
 C        -1.465126         1.935092         0.218995
 C        -2.525834         2.353249         1.205254
 O        -1.908266         3.152778         2.267781
 C        -1.605530         1.955723         3.011283
 C        -0.303503         1.320591         2.409013
 C        -2.748560         1.185854         2.170839
 C        -2.042663        -0.045990         1.562752
 H         0.524210        -0.700613         0.809197
 H        -0.876143         2.810776        -0.139624
 H        -1.938926         1.382223        -0.623628
 H        -3.521423         2.715946         0.849065
 H        -1.537575         2.263133         4.085267
 H         0.515434         2.044335         2.206535
 H         0.182133         0.510450         3.045266
 H        -3.640114         0.983828         2.795331
 H        -1.651006        -0.701305         2.386074
 H        -2.570073        -0.572768         0.747028
