19
Iteration:  4399
 O         0.094774        -0.008336         0.309598
 C        -0.871775         0.776934         1.035452
 C        -1.700270         1.797525         0.136267
 C        -2.588322         2.280460         1.310144
 O        -1.958475         3.205474         2.276170
 C        -1.434629         2.006244         2.998240
 C        -0.177653         1.490416         2.219176
 C        -2.686886         1.125775         2.290448
 C        -1.905609        -0.075275         1.701133
 H         0.992860         0.126967         0.632703
 H        -1.175747         2.582291        -0.408066
 H        -2.216479         1.110072        -0.585090
 H        -3.490646         2.710290         0.858996
 H        -1.484431         2.122598         4.103113
 H         0.529058         2.352129         1.845696
 H         0.380797         0.677442         2.629306
 H        -3.626639         1.019184         2.879122
 H        -1.573398        -0.712107         2.538307
 H        -2.564955        -0.685110         0.971356
