19
Iteration:  1323charge 0 multiplicity 1
 O         0.211916         0.123469         0.396900
 C        -0.764912         0.787623         1.184141
 C        -1.660379         1.717649         0.181646
 C        -2.619280         2.262871         1.177521
 O        -1.843767         3.142894         2.118054
 C        -1.584059         1.954553         2.969384
 C        -0.222913         1.515871         2.334417
 C        -2.709928         1.181180         2.322342
 C        -1.989076        -0.062688         1.678953
 H        -0.282331        -0.562266        -0.124198
 H        -1.144458         2.454266        -0.376276
 H        -2.273699         0.986588        -0.479905
 H        -3.422115         2.807676         0.798208
 H        -1.447492         2.187088         4.013366
 H         0.448594         2.313685         2.002893
 H         0.482986         0.945028         3.049572
 H        -3.725480         1.104413         2.863433
 H        -1.742926        -1.011614         2.126159
 H        -2.593612        -0.483483         0.838938
