19
Iteration:  3926charge 0 multiplicity 1
 O         0.145790         0.096776         0.247821
 C        -0.822882         0.739525         1.064244
 C        -1.638334         1.751251         0.246540
 C        -2.633392         2.250155         1.235616
 O        -1.894248         3.115622         2.204675
 C        -1.491001         2.031778         2.888272
 C        -0.166591         1.409161         2.346492
 C        -2.658441         1.191760         2.339673
 C        -2.038487        -0.062618         1.759650
 H         0.201150         0.554552        -0.598243
 H        -0.928641         2.434725        -0.283364
 H        -2.149198         1.161717        -0.595870
 H        -3.548493         2.839514         1.038200
 H        -1.418330         2.270637         3.925527
 H         0.594955         2.224572         2.191726
 H         0.297384         0.691646         3.028460
 H        -3.597769         1.204053         2.970086
 H        -1.767436        -0.717315         2.629772
 H        -2.741719        -0.517406         1.015002
