19
Iteration:   613
 O         0.172656        -0.060256         0.344143
 C        -0.815237         0.741808         0.978564
 C        -1.389086         2.022191         0.288400
 C        -2.580974         2.242618         1.169781
 O        -2.092715         3.153358         2.232714
 C        -1.489732         2.056736         2.941220
 C        -0.340089         1.393148         2.272955
 C        -2.628750         1.163857         2.333932
 C        -2.001237        -0.073959         1.683927
 H        -0.116973        -0.995500         0.346121
 H        -0.695806         2.882996         0.242572
 H        -1.959346         1.751045        -0.663094
 H        -3.509223         2.647808         0.804449
 H        -1.185942         2.104997         4.020313
 H         0.347842         2.206152         1.978826
 H         0.013820         0.728434         2.997531
 H        -3.517746         1.164517         2.917065
 H        -1.466187        -0.805453         2.301662
 H        -2.675816        -0.449578         0.924556
