19
Iteration:  1273charge 0 multiplicity 1
 O         0.209858        -0.097673         0.394755
 C        -0.854526         0.657177         0.976435
 C        -1.446734         1.856234         0.198655
 C        -2.604638         2.273802         1.252249
 O        -2.187719         3.249572         2.200627
 C        -1.494138         2.115361         2.913013
 C        -0.280121         1.435116         2.248030
 C        -2.588899         1.134033         2.379497
 C        -1.971744        -0.044424         1.742548
 H         0.269242        -0.042612        -0.565376
 H        -0.609675         2.651918         0.165903
 H        -1.907907         1.541358        -0.798185
 H        -3.541457         2.670723         0.713234
 H        -1.309685         2.521632         3.965557
 H         0.534970         2.149896         1.997456
 H         0.191368         0.711809         2.888753
 H        -3.419217         0.905991         3.016308
 H        -1.486886        -0.697904         2.539072
 H        -2.619929        -0.691477         1.156949
