19
Iteration:  2296
 O        -0.028877        -0.140135         0.361105
 C        -0.757656         0.758937         1.066241
 C        -1.651233         1.765959         0.183845
 C        -2.619027         2.208965         1.232437
 O        -2.088511         3.184927         2.140727
 C        -1.481492         2.136993         2.918095
 C        -0.189554         1.613689         2.217216
 C        -2.528639         1.126669         2.363129
 C        -1.824086        -0.046261         1.825013
 H         0.643191         0.374086        -0.113005
 H        -1.055188         2.598170        -0.226673
 H        -2.309908         1.382602        -0.677805
 H        -3.648137         2.308545         0.913486
 H        -1.436055         2.429930         4.012599
 H         0.578024         2.330934         2.019643
 H         0.289927         0.805586         2.815930
 H        -3.442606         1.011105         2.990465
 H        -1.266859        -0.698088         2.565809
 H        -2.290289        -0.761676         1.125614
