19
Iteration:  1132charge 0 multiplicity 1
 O         0.185630        -0.124331         0.415988
 C        -0.802838         0.738693         1.047125
 C        -1.565731         1.861605         0.194621
 C        -2.654887         2.370274         1.274112
 O        -2.067986         3.234307         2.255595
 C        -1.547420         1.973353         2.884857
 C        -0.200399         1.500577         2.200069
 C        -2.667443         1.128262         2.207347
 C        -1.865001        -0.027051         1.745708
 H         0.007070        -0.971671        -0.000884
 H        -0.954212         2.776037        -0.060287
 H        -1.974521         1.188628        -0.577416
 H        -3.653081         2.875949         0.956215
 H        -1.336475         2.054721         3.960172
 H         0.375216         2.417720         1.979753
 H         0.230177         0.866549         2.989784
 H        -3.581538         0.873592         2.672548
 H        -1.366828        -0.370126         2.662031
 H        -2.411214        -0.735653         1.154105
