19
Iteration:  2024charge 0 multiplicity 1
 O         0.217345        -0.131244         0.270338
 C        -0.781524         0.667326         1.045193
 C        -1.660400         1.613288         0.219250
 C        -2.679499         2.306443         1.308822
 O        -2.151650         3.266770         2.244525
 C        -1.443570         2.157613         2.852867
 C        -0.253704         1.590578         2.092663
 C        -2.551483         1.212495         2.393533
 C        -1.922991        -0.075585         1.790114
 H         1.022108        -0.140144         0.826838
 H        -1.145069         2.526876        -0.261915
 H        -2.327579         1.027572        -0.443357
 H        -3.596102         2.653007         0.881689
 H        -1.214867         2.355539         3.976898
 H         0.390669         2.331934         1.569864
 H         0.137307         1.150802         2.933720
 H        -3.396613         0.995241         3.165996
 H        -1.468297        -0.595593         2.656284
 H        -2.368032        -0.858543         1.146912
