19
Iteration:  2125charge 0 multiplicity 1
 O         0.110043         0.030119         0.331064
 C        -0.854689         0.764623         1.062628
 C        -1.689740         1.659408         0.134060
 C        -2.655622         2.130674         1.244840
 O        -2.035172         3.205312         2.062569
 C        -1.407602         2.094495         2.933327
 C        -0.188976         1.635732         2.183095
 C        -2.594028         1.149422         2.479813
 C        -1.914694        -0.078580         1.859328
 H         0.735972        -0.471119         0.885528
 H        -1.245752         2.655689        -0.370044
 H        -2.242564         1.039068        -0.605640
 H        -3.640804         2.522244         1.051379
 H        -1.293187         2.214988         4.049948
 H         0.371506         2.408511         1.548882
 H         0.628094         1.135066         2.595195
 H        -3.294705         1.046796         3.228880
 H        -1.410419        -0.782027         2.536166
 H        -2.575131        -0.521516         1.137501
