19
Iteration:  3243charge 0 multiplicity 1
 O         0.112115         0.115229         0.278000
 C        -0.844055         0.754084         1.029720
 C        -1.739219         1.719765         0.191377
 C        -2.650314         2.267845         1.268094
 O        -1.905265         3.233119         2.137070
 C        -1.391350         2.105447         2.934415
 C        -0.216748         1.371715         2.263657
 C        -2.613261         1.155096         2.360082
 C        -1.916585        -0.101750         1.779472
 H         0.790835        -0.127449         0.951126
 H        -1.224942         2.404362        -0.425777
 H        -2.436200         1.161394        -0.549603
 H        -3.610649         2.565854         0.971127
 H        -1.501441         2.299499         4.000985
 H         0.629279         2.087542         2.176607
 H        -0.176352         0.692377         3.037722
 H        -3.633692         0.876814         2.760406
 H        -1.541991        -0.847133         2.529034
 H        -2.568188        -0.662087         1.103293
