19
Iteration:  1299charge 0 multiplicity 1
 O         0.190874        -0.043800         0.393004
 C        -0.790941         0.741005         1.063626
 C        -1.572835         1.795155         0.222664
 C        -2.647819         2.279235         1.249179
 O        -1.996839         3.219519         2.180021
 C        -1.565635         2.034780         2.923817
 C        -0.221381         1.512898         2.313685
 C        -2.642584         1.162462         2.249825
 C        -1.947310        -0.076967         1.728984
 H        -0.017385        -0.323983        -0.506767
 H        -0.936663         2.650901        -0.111822
 H        -2.065377         1.164133        -0.664995
 H        -3.527562         2.786879         0.862180
 H        -1.475259         2.389050         3.979184
 H         0.544995         2.257126         2.209656
 H         0.281351         0.742842         2.898428
 H        -3.588008         1.022598         2.798199
 H        -1.582571        -0.815422         2.441680
 H        -2.501174        -0.784335         1.036032
