19
Iteration:  1895charge 0 multiplicity 1
 O         0.080569        -0.044739         0.362725
 C        -0.749345         0.831138         1.085569
 C        -1.618115         1.702729         0.194078
 C        -2.662344         2.162209         1.293239
 O        -2.030018         3.172337         2.107404
 C        -1.497800         2.099845         2.929814
 C        -0.141076         1.653161         2.146863
 C        -2.636894         1.117074         2.457485
 C        -1.894633        -0.058900         1.695910
 H        -0.094591        -0.899558         0.814581
 H        -1.156935         2.613575        -0.356275
 H        -2.018838         1.134149        -0.619385
 H        -3.581846         2.550888         0.840167
 H        -1.424036         2.449834         3.994284
 H         0.587592         2.547141         1.890210
 H         0.438602         0.995173         2.893444
 H        -3.504018         0.981572         3.118378
 H        -1.548890        -0.774281         2.492585
 H        -2.530911        -0.444194         0.897240
