19
Iteration:  2720charge 0 multiplicity 1
 O         0.249405        -0.002480         0.299990
 C        -0.811706         0.719186         1.026965
 C        -1.700317         1.788038         0.177529
 C        -2.626577         2.354682         1.244356
 O        -1.881321         3.138335         2.138875
 C        -1.518287         2.044320         2.982773
 C        -0.264005         1.372812         2.306611
 C        -2.666505         1.167257         2.340312
 C        -1.988283        -0.050427         1.806335
 H         0.191733         0.252631        -0.621243
 H        -1.133024         2.767098        -0.065738
 H        -2.181058         1.460832        -0.789290
 H        -3.652660         2.843465         0.822720
 H        -1.456942         2.391634         3.985638
 H         0.341462         2.214926         2.085266
 H         0.271772         0.832285         3.056941
 H        -3.508466         1.018789         3.010593
 H        -1.637250        -0.629424         2.708079
 H        -2.635593        -0.801712         1.292365
