19
Iteration:  1477
 O         0.055992         0.012192         0.288994
 C        -0.749509         0.811954         1.134280
 C        -1.588007         1.753107         0.228572
 C        -2.618135         2.272586         1.212421
 O        -1.903253         3.144685         2.043513
 C        -1.592453         2.063091         3.021173
 C        -0.178003         1.498832         2.326921
 C        -2.715935         1.096279         2.337022
 C        -1.933987        -0.044513         1.744219
 H         0.926312         0.207250         0.661399
 H        -1.025986         2.568455        -0.235091
 H        -2.009125         1.034269        -0.601379
 H        -3.510116         2.676129         0.872771
 H        -1.591665         2.302166         4.075248
 H         0.447206         2.303492         2.063949
 H         0.313504         0.742004         2.899535
 H        -3.655205         0.718786         2.748205
 H        -1.830079        -0.844762         2.481192
 H        -2.425664        -0.351899         0.781058
