19
Iteration:  2911charge 0 multiplicity 1
 O         0.062596        -0.016018         0.294979
 C        -0.793491         0.719494         1.141206
 C        -1.542830         1.697205         0.265372
 C        -2.660812         2.256970         1.217614
 O        -2.030130         3.221044         2.326808
 C        -1.455579         2.072473         2.920287
 C        -0.174966         1.593512         2.132848
 C        -2.587544         1.166544         2.326113
 C        -1.947027        -0.064902         1.668293
 H        -0.278200        -0.907102         0.400715
 H        -1.046610         2.583426        -0.118822
 H        -1.916139         1.179788        -0.650722
 H        -3.593506         2.704671         0.717675
 H        -1.378251         2.216630         4.070012
 H         0.341361         2.507513         1.669160
 H         0.440937         1.013264         2.868697
 H        -3.453989         0.991257         2.999698
 H        -1.747203        -0.906575         2.356163
 H        -2.367489        -0.671634         0.809060
