19
Iteration:  3084charge 0 multiplicity 1
 O         0.011677        -0.050423         0.238595
 C        -0.809477         0.726381         1.038598
 C        -1.633835         1.788618         0.270253
 C        -2.638435         2.261675         1.253702
 O        -2.052814         3.222907         2.202247
 C        -1.437731         2.071852         2.889534
 C        -0.149277         1.477665         2.235329
 C        -2.624250         1.178986         2.310127
 C        -1.870213        -0.067476         1.804327
 H         0.908689        -0.193698         0.636366
 H        -0.939106         2.662787        -0.130335
 H        -2.088457         1.140783        -0.520545
 H        -3.704091         2.570342         0.857850
 H        -1.381255         2.248749         4.000470
 H         0.460285         2.292027         1.878074
 H         0.275050         0.741010         2.997114
 H        -3.486915         1.139587         2.953335
 H        -1.356336        -0.614779         2.615459
 H        -2.507095        -0.716181         1.155323
