19
Iteration:  3303
 O         0.073063        -0.022173         0.258788
 C        -0.831453         0.660043         0.999208
 C        -1.588286         1.818748         0.214488
 C        -2.648195         2.347816         1.226328
 O        -2.087820         3.232224         2.233944
 C        -1.438154         2.081337         2.949551
 C        -0.233800         1.468419         2.220942
 C        -2.546806         1.177599         2.374431
 C        -1.931120        -0.104433         1.754983
 H         0.314541        -0.836181         0.781022
 H        -0.746946         2.555636        -0.127964
 H        -1.900932         1.191032        -0.587738
 H        -3.612347         2.705500         0.714833
 H        -1.274125         2.152091         4.035553
 H         0.495429         2.176098         1.892535
 H         0.418589         1.000077         2.961605
 H        -3.343515         1.052139         3.098511
 H        -1.391242        -0.702227         2.490071
 H        -2.546862        -0.760804         1.099073
