19
Iteration:  2339charge 0 multiplicity 1
 O         0.227983         0.146960         0.352629
 C        -0.836143         0.712867         1.089270
 C        -1.695568         1.648026         0.265270
 C        -2.625545         2.184036         1.272743
 O        -1.983415         3.180183         2.107116
 C        -1.421364         2.092826         2.869744
 C        -0.187236         1.525067         2.180349
 C        -2.647321         1.201963         2.394647
 C        -1.989824        -0.098350         1.807806
 H        -0.082555        -0.661346        -0.076758
 H        -1.149036         2.443627        -0.255019
 H        -2.176661         0.967057        -0.524001
 H        -3.552863         2.638855         0.902585
 H        -1.268742         2.299547         3.948816
 H         0.430248         2.258192         1.823857
 H         0.474842         0.984135         2.838633
 H        -3.631393         1.219113         2.926256
 H        -1.807991        -0.880153         2.573658
 H        -2.732897        -0.412556         1.056049
