19
Iteration:  4524
 O         0.153546         0.015100         0.319587
 C        -0.870512         0.736306         1.030655
 C        -1.625516         1.809579         0.245407
 C        -2.669363         2.242433         1.363056
 O        -1.988232         3.168452         2.214838
 C        -1.408224         2.088085         2.927171
 C        -0.151558         1.525129         2.250924
 C        -2.590241         1.104028         2.326911
 C        -2.015240        -0.059497         1.601999
 H         0.139370        -0.893018         0.647360
 H        -1.121449         2.717967        -0.066867
 H        -2.195154         1.491349        -0.624750
 H        -3.638041         2.612379         0.980753
 H        -1.488450         2.107472         4.044344
 H         0.354630         2.279261         1.649645
 H         0.385762         0.933806         2.962959
 H        -3.418768         1.111774         3.068023
 H        -1.573119        -0.886399         2.185969
 H        -2.545902        -0.479301         0.774456
