19
Iteration:   226
 O         0.092909        -0.111750         0.225482
 C        -0.797126         0.727558         1.044675
 C        -1.430298         1.808402         0.315998
 C        -2.528499         2.348566         1.232604
 O        -2.142096         3.199733         2.312223
 C        -1.556698         2.057408         2.953759
 C        -0.182722         1.431303         2.291365
 C        -2.726706         1.184940         2.245568
 C        -1.993318        -0.066831         1.641035
 H         1.054299        -0.039208         0.438791
 H        -0.704035         2.649754         0.036068
 H        -1.885171         1.636667        -0.585559
 H        -3.286695         2.884134         0.627804
 H        -1.376155         2.266067         4.008693
 H         0.505204         2.299936         2.218165
 H         0.480138         0.685459         2.890429
 H        -3.663560         1.099415         2.698421
 H        -1.627140        -0.683486         2.468761
 H        -2.566900        -0.826045         1.019912
