19
Iteration:   467charge 0 multiplicity 1
 O         0.086562        -0.114435         0.409768
 C        -0.801339         0.678688         1.070046
 C        -1.476352         1.959375         0.176256
 C        -2.613316         2.407657         1.240037
 O        -2.006246         3.209258         2.356243
 C        -1.594354         1.926158         2.964418
 C        -0.215991         1.397933         2.192276
 C        -2.678935         1.189064         2.129566
 C        -1.908429        -0.117737         1.703285
 H         0.775799         0.327339        -0.123846
 H        -0.787778         2.909253         0.084835
 H        -1.969751         1.650429        -0.772822
 H        -3.363275         2.839707         0.583000
 H        -1.682256         1.989763         4.050438
 H         0.280616         2.333540         2.019672
 H         0.224908         0.840043         2.986863
 H        -3.658307         1.026570         2.671772
 H        -1.604124        -0.611775         2.590168
 H        -2.467494        -0.842473         1.075977
