19
Iteration:  3789
 O         0.123107         0.179838         0.196103
 C        -0.865962         0.656070         1.093724
 C        -1.653519         1.769335         0.218116
 C        -2.648379         2.273843         1.292294
 O        -1.850351         3.235499         2.032874
 C        -1.480371         2.049883         3.000943
 C        -0.217904         1.441725         2.304668
 C        -2.648944         1.138437         2.384934
 C        -1.971668        -0.190730         1.744530
 H         0.587842        -0.546997         0.683059
 H        -0.938913         2.506934        -0.161659
 H        -2.135729         1.223005        -0.614126
 H        -3.602792         2.754510         1.184854
 H        -1.538364         2.363565         4.103634
 H         0.408053         2.308948         1.973683
 H         0.307589         0.749704         3.072706
 H        -3.475467         1.011292         3.037414
 H        -1.800454        -0.826104         2.546330
 H        -2.758325        -0.564589         1.152055
