19
Iteration:  2784charge 0 multiplicity 1
 O         0.040732        -0.212517         0.339531
 C        -0.718132         0.790586         1.038508
 C        -1.600331         1.875602         0.227696
 C        -2.667629         2.266872         1.294553
 O        -1.976078         3.261436         2.193185
 C        -1.525415         2.037686         2.915440
 C        -0.214290         1.525927         2.245824
 C        -2.645786         1.088413         2.350587
 C        -1.932093        -0.057151         1.713280
 H         0.737523         0.142596        -0.264902
 H        -0.978749         2.729815         0.123277
 H        -1.928240         1.512683        -0.781412
 H        -3.565882         2.704276         0.930151
 H        -1.400090         2.203503         3.951531
 H         0.478810         2.316989         1.948132
 H         0.402471         0.884288         2.825647
 H        -3.503582         0.927707         3.025128
 H        -1.572289        -0.710431         2.498416
 H        -2.494749        -0.554647         0.919232
