19
Iteration:  2146
 O         0.090154        -0.164613         0.351383
 C        -0.785867         0.770487         1.016388
 C        -1.806255         1.713183         0.262803
 C        -2.724172         2.213002         1.312058
 O        -2.028401         3.193827         2.095220
 C        -1.490970         2.168601         2.848284
 C        -0.191653         1.681630         2.140953
 C        -2.535053         1.077695         2.426563
 C        -1.787300        -0.050945         1.776878
 H         0.923480        -0.241302         0.835933
 H        -1.117494         2.667605         0.035136
 H        -2.126148         1.181650        -0.623132
 H        -3.657807         2.668891         0.986859
 H        -1.207981         2.520955         3.913635
 H         0.604526         2.553152         1.838165
 H         0.297211         0.969292         2.859460
 H        -3.414014         0.860502         2.990935
 H        -1.418734        -0.663885         2.613772
 H        -2.452129        -0.592080         1.114680
