19
Iteration:  2930charge 0 multiplicity 1
 O         0.134832        -0.154002         0.328763
 C        -0.809351         0.771218         0.966462
 C        -1.586517         1.887162         0.153219
 C        -2.604049         2.281738         1.324118
 O        -2.113577         3.172505         2.234780
 C        -1.425575         2.013601         2.936596
 C        -0.161614         1.579438         2.208543
 C        -2.626006         1.148366         2.357558
 C        -1.903979        -0.023711         1.762589
 H        -0.199099        -1.036278         0.492000
 H        -0.930069         2.725497        -0.402570
 H        -2.303183         1.567066        -0.617266
 H        -3.635904         2.652594         0.829141
 H        -1.511833         2.095960         4.040521
 H         0.392387         2.444916         2.013047
 H         0.581136         0.990707         2.698795
 H        -3.594431         1.064980         2.881670
 H        -1.507062        -0.814884         2.489214
 H        -2.651205        -0.598619         1.176498
