19
Iteration:  1724
 O         0.202072         0.039823         0.349621
 C        -0.798156         0.782909         1.065173
 C        -1.794011         1.753510         0.175450
 C        -2.729994         2.281843         1.288979
 O        -1.972906         3.199424         2.073144
 C        -1.462352         2.124564         2.860279
 C        -0.194541         1.396607         2.372742
 C        -2.605818         1.158953         2.318667
 C        -1.841314        -0.042878         1.734152
 H         0.356227        -0.783684         0.846177
 H        -1.382161         2.449176        -0.643772
 H        -2.415973         0.941839        -0.361616
 H        -3.763788         2.659248         1.021857
 H        -1.450762         2.419217         3.909782
 H         0.577561         2.081302         2.165596
 H         0.262642         0.659253         3.070502
 H        -3.353981         0.896559         3.031177
 H        -1.420460        -0.691206         2.487626
 H        -2.385600        -0.633033         1.040988
