19
Iteration:  4722charge 0 multiplicity 1
 O         0.198466        -0.042876         0.255010
 C        -0.773989         0.719383         1.006476
 C        -1.733815         1.814037         0.239503
 C        -2.639794         2.260803         1.363595
 O        -1.929348         3.176492         2.174697
 C        -1.462719         2.032634         2.974078
 C        -0.243220         1.487986         2.239938
 C        -2.648352         1.178069         2.395357
 C        -2.032676        -0.061282         1.647754
 H         1.135991         0.088989         0.518894
 H        -1.136023         2.620887        -0.061249
 H        -2.303714         1.327813        -0.566023
 H        -3.616589         2.724474         1.037018
 H        -1.463644         2.306845         4.034528
 H         0.492922         2.220511         2.008772
 H         0.317505         0.930130         2.962994
 H        -3.653604         1.041744         2.911197
 H        -1.584294        -0.858500         2.270746
 H        -2.507552        -0.442961         0.730448
