19
Iteration:   380charge 0 multiplicity 1
 O         0.173470        -0.085378         0.345129
 C        -0.852786         0.708654         0.907385
 C        -1.541445         1.854061         0.183654
 C        -2.559872         2.374640         1.222523
 O        -1.961017         3.205726         2.326281
 C        -1.598903         1.914190         2.970219
 C        -0.263230         1.454872         2.346642
 C        -2.666016         1.192372         2.217680
 C        -1.978102        -0.063926         1.682994
 H         0.881006         0.588709         0.434798
 H        -0.785013         2.677923        -0.160218
 H        -2.054785         1.516265        -0.735289
 H        -3.496107         2.729192         0.757708
 H        -1.636690         1.948886         4.059550
 H         0.431965         2.341300         2.147059
 H         0.157514         0.629636         3.003846
 H        -3.652162         1.022338         2.704242
 H        -1.523365        -0.480775         2.605059
 H        -2.626244        -0.841453         1.192986
