19
Iteration:   319charge 0 multiplicity 1
 O         0.169752         0.027058         0.253453
 C        -0.836223         0.704912         0.999761
 C        -1.472823         1.951897         0.230934
 C        -2.599580         2.362613         1.224526
 O        -1.990242         3.190542         2.228839
 C        -1.567904         2.047992         2.942419
 C        -0.321320         1.386731         2.323195
 C        -2.672413         1.094107         2.313573
 C        -1.940834        -0.134567         1.707677
 H         0.450853        -0.690956         0.843170
 H        -0.798994         2.726419        -0.016886
 H        -1.875913         1.481963        -0.733325
 H        -3.576224         2.751776         0.904237
 H        -1.244191         2.452619         3.938562
 H         0.613909         2.008036         2.276280
 H         0.061637         0.603071         3.053661
 H        -3.751709         1.020143         2.704407
 H        -1.684977        -0.853296         2.528592
 H        -2.562280        -0.659116         0.998835
