19
Iteration:  1515charge 0 multiplicity 1
 O         0.243843        -0.071694         0.281706
 C        -0.823196         0.684933         1.031648
 C        -1.567367         1.772575         0.162413
 C        -2.566854         2.320717         1.268159
 O        -2.143117         3.292853         2.262375
 C        -1.557912         2.103532         2.960956
 C        -0.234483         1.508782         2.178103
 C        -2.613907         1.124546         2.323683
 C        -1.953280        -0.093677         1.799185
 H         0.534545        -0.881568         0.769207
 H        -0.705897         2.428401        -0.215241
 H        -2.097309         1.414427        -0.676500
 H        -3.507356         2.787740         0.751867
 H        -1.430380         2.262033         4.078686
 H         0.555238         2.270248         1.764803
 H         0.289864         0.842472         2.987893
 H        -3.682411         1.014611         2.618507
 H        -1.505939        -0.861081         2.483393
 H        -2.688947        -0.585155         1.167892
