19
Iteration:  3792charge 0 multiplicity 1
 O         0.086191         0.174649         0.217489
 C        -0.870154         0.661214         1.074970
 C        -1.653048         1.752259         0.218783
 C        -2.669304         2.290656         1.271055
 O        -1.863995         3.205713         2.051778
 C        -1.464128         2.030068         3.001121
 C        -0.182758         1.440109         2.317019
 C        -2.641758         1.146365         2.366502
 C        -1.953873        -0.162905         1.753766
 H         0.605931        -0.487314         0.697451
 H        -0.839300         2.582745        -0.069598
 H        -2.165381         1.238478        -0.586852
 H        -3.672880         2.797915         1.040776
 H        -1.423125         2.434678         4.035237
 H         0.344723         2.274397         1.980160
 H         0.256131         0.829570         3.075991
 H        -3.484124         1.083229         3.017499
 H        -1.729033        -0.842822         2.568819
 H        -2.653291        -0.604245         1.007833
