19
Iteration:   508
 O         0.079897        -0.075309         0.310730
 C        -0.763836         0.724973         1.079540
 C        -1.513461         1.830798         0.212650
 C        -2.591020         2.271289         1.156731
 O        -2.022974         3.241898         2.282384
 C        -1.553941         2.046333         2.989448
 C        -0.236630         1.423872         2.381193
 C        -2.614241         1.147419         2.306538
 C        -2.007561        -0.005636         1.549294
 H         0.995365         0.025398         0.639128
 H        -0.918701         2.681604        -0.147471
 H        -1.970272         1.297787        -0.631947
 H        -3.605886         2.719556         0.905693
 H        -1.423516         2.097341         4.081950
 H         0.594044         2.125541         2.201222
 H         0.343327         0.659421         3.033328
 H        -3.552631         1.066137         2.829153
 H        -1.853508        -1.029495         1.985122
 H        -2.584190        -0.295143         0.636971
