19
Iteration:  1509charge 0 multiplicity 1
 O         0.221043        -0.073492         0.272183
 C        -0.814108         0.691345         1.022463
 C        -1.582771         1.806413         0.146792
 C        -2.596664         2.326418         1.210803
 O        -2.111867         3.278194         2.279788
 C        -1.548530         2.117345         2.988110
 C        -0.249065         1.486155         2.207442
 C        -2.590567         1.174063         2.266098
 C        -1.919875        -0.146191         1.827533
 H         0.606562        -0.725036         0.893559
 H        -0.867476         2.504137        -0.202705
 H        -2.162434         1.360334        -0.734607
 H        -3.504306         2.696528         0.844105
 H        -1.489239         2.130727         4.060655
 H         0.458546         2.173318         1.891250
 H         0.245829         0.908587         2.938729
 H        -3.592428         1.005254         2.699549
 H        -1.723400        -0.707704         2.765382
 H        -2.528139        -0.799606         1.103596
