19
Iteration:  1215
 O         0.252831         0.058752         0.400322
 C        -0.870268         0.797712         1.051685
 C        -1.670135         1.720627         0.132699
 C        -2.558567         2.204103         1.208030
 O        -1.879628         3.224201         2.180765
 C        -1.598536         2.047242         2.936908
 C        -0.300538         1.413073         2.286839
 C        -2.685169         1.164627         2.304039
 C        -1.918522        -0.045465         1.820187
 H         0.111294         0.170142        -0.558361
 H        -1.176065         2.539636        -0.392011
 H        -2.302770         1.217052        -0.627809
 H        -3.440400         2.685025         0.838326
 H        -1.342727         2.221545         4.009912
 H         0.509498         2.165902         2.193448
 H         0.117067         0.478792         2.905977
 H        -3.674636         1.090980         2.929317
 H        -1.596669        -0.715436         2.648145
 H        -2.375379        -0.718526         1.002627
