19
Iteration:   392
 O         0.186026         0.028105         0.344707
 C        -0.834440         0.748586         1.093336
 C        -1.542495         1.874059         0.151659
 C        -2.581592         2.362689         1.240154
 O        -1.920088         3.178202         2.230676
 C        -1.571497         1.936944         2.981842
 C        -0.351978         1.275674         2.291285
 C        -2.715138         1.167654         2.189561
 C        -1.961403        -0.028133         1.752508
 H         0.914129         0.541329        -0.027996
 H        -0.749503         2.640478        -0.165066
 H        -2.028106         1.419929        -0.698660
 H        -3.506032         2.880517         0.948263
 H        -1.518930         2.099041         4.061839
 H         0.364961         2.165590         2.225069
 H         0.257636         0.518488         2.852233
 H        -3.758647         1.082977         2.663683
 H        -1.502202        -0.640688         2.573722
 H        -2.456118        -0.779588         1.084169
