19
Iteration:  3790charge 0 multiplicity 1
 O         0.111054         0.179142         0.202821
 C        -0.867751         0.656120         1.087690
 C        -1.653559         1.764096         0.217695
 C        -2.655512         2.279223         1.285282
 O        -1.854698         3.226674         2.037436
 C        -1.475008         2.042880         3.002311
 C        -0.205228         1.441593         2.307525
 C        -2.648767         1.140411         2.379794
 C        -1.964910        -0.185175         1.747894
 H         0.593999        -0.530883         0.691604
 H        -0.893799         2.540202        -0.134956
 H        -2.146392         1.227946        -0.601414
 H        -3.626635         2.772592         1.148108
 H        -1.504033         2.391706         4.093164
 H         0.379833         2.296735         1.976760
 H         0.289405         0.773204         3.081916
 H        -3.461016         1.037542         3.022047
 H        -1.787953        -0.814627         2.537457
 H        -2.720447        -0.569969         1.115511
