19
Iteration:  4616charge 0 multiplicity 1
 O         0.095429        -0.064930         0.306407
 C        -0.821528         0.815179         0.972123
 C        -1.690003         1.855598         0.163796
 C        -2.636763         2.249130         1.293718
 O        -2.019192         3.192194         2.285469
 C        -1.428230         2.019433         2.928873
 C        -0.200962         1.501154         2.220842
 C        -2.607190         1.137315         2.378189
 C        -1.888623        -0.050700         1.686201
 H         0.575860        -0.512291         1.040700
 H        -0.906060         2.584399        -0.203755
 H        -2.014043         1.357206        -0.770211
 H        -3.638751         2.700264         1.033947
 H        -1.367396         2.210159         3.964599
 H         0.467791         2.239296         1.873863
 H         0.173645         0.652582         2.917466
 H        -3.426474         1.004216         3.078111
 H        -1.617298        -0.983377         2.124048
 H        -2.617899        -0.329426         0.871180
