19
Iteration:  3387charge 0 multiplicity 1
 O         0.219719         0.119492         0.126984
 C        -0.770729         0.640368         1.028900
 C        -1.730510         1.710042         0.261575
 C        -2.679959         2.346062         1.258812
 O        -1.918084         3.209958         2.117677
 C        -1.537495         2.086551         2.905401
 C        -0.208807         1.323457         2.361617
 C        -2.639172         1.186910         2.369804
 C        -1.979285        -0.042344         1.829632
 H         0.781146        -0.490137         0.589911
 H        -1.059466         2.521100        -0.269867
 H        -2.236079         1.171483        -0.566089
 H        -3.592869         2.877520         1.039225
 H        -1.392848         2.313159         3.945652
 H         0.499468         2.130457         2.081352
 H        -0.055613         0.603624         3.214796
 H        -3.435863         1.099266         3.062024
 H        -1.658564        -0.583455         2.800523
 H        -2.548758        -0.639760         1.111118
