19
Iteration:  1064
 O         0.237987        -0.001398         0.367281
 C        -0.783457         0.791704         1.018862
 C        -1.683226         1.828217         0.212741
 C        -2.744719         2.304174         1.294364
 O        -1.859712         3.186044         2.066572
 C        -1.509916         2.026349         2.879864
 C        -0.233095         1.409251         2.399818
 C        -2.703805         1.133103         2.271893
 C        -1.922596        -0.088693         1.821763
 H         0.284226         0.472167        -0.482977
 H        -1.133826         2.690173        -0.283053
 H        -2.167911         1.160088        -0.591103
 H        -3.799557         2.567381         0.895593
 H        -1.547020         2.267737         3.988863
 H         0.631579         2.015958         2.184942
 H        -0.037136         0.629006         3.100004
 H        -3.753934         0.943561         2.742489
 H        -1.446258        -0.635426         2.656368
 H        -2.530758        -0.632728         1.181857
