19
Iteration:  2229
 O         0.218980         0.079135         0.386356
 C        -0.838081         0.782864         1.053428
 C        -1.807803         1.683993         0.115880
 C        -2.723676         2.165415         1.230300
 O        -1.956338         3.163752         2.089095
 C        -1.439237         2.122879         2.880485
 C        -0.179928         1.525076         2.239841
 C        -2.619187         1.204161         2.496458
 C        -1.813990        -0.048691         1.815851
 H        -0.113503        -0.743117        -0.078700
 H        -1.332569         2.360520        -0.543343
 H        -2.422237         0.924213        -0.548875
 H        -3.728652         2.638049         0.977155
 H        -1.195793         2.417542         3.904860
 H         0.548999         2.210509         2.048150
 H         0.129104         0.653629         2.846628
 H        -3.519316         1.137465         3.263840
 H        -1.564926        -0.760521         2.618381
 H        -2.359839        -0.661291         1.043697
