19
Iteration:  1874
 O         0.119003        -0.032561         0.222471
 C        -0.828316         0.664944         1.073837
 C        -1.638855         1.721157         0.201329
 C        -2.676352         2.186648         1.203700
 O        -2.117308         3.286303         2.143232
 C        -1.428375         2.153764         2.901541
 C        -0.209580         1.532917         2.320697
 C        -2.543254         1.153083         2.379742
 C        -1.875308        -0.060103         1.797039
 H         0.810552        -0.401636         0.803100
 H        -1.072391         2.543734        -0.371704
 H        -2.132340         1.181245        -0.561813
 H        -3.715637         2.460062         0.959066
 H        -1.405495         2.440105         3.977150
 H         0.691954         2.226979         2.041709
 H         0.138176         0.795660         3.138484
 H        -3.406611         1.074700         3.010399
 H        -1.284532        -0.768629         2.509529
 H        -2.684019        -0.555096         1.224090
