19
Iteration:   639
 O         0.178725        -0.044638         0.340113
 C        -0.767353         0.731747         1.075658
 C        -1.487633         1.826665         0.259848
 C        -2.629023         2.320044         1.234898
 O        -2.072739         3.254553         2.193447
 C        -1.489806         2.029765         2.986609
 C        -0.166588         1.413458         2.373933
 C        -2.700496         1.138043         2.243032
 C        -2.024000        -0.072034         1.613290
 H        -0.313842        -0.318968        -0.460136
 H        -0.683904         2.567508         0.025143
 H        -2.020074         1.590460        -0.643457
 H        -3.628036         2.750115         0.886062
 H        -1.297807         2.072727         4.067452
 H         0.512516         2.213469         2.120284
 H         0.199858         0.693150         3.143373
 H        -3.589925         0.954382         2.906288
 H        -1.604463        -0.751381         2.412555
 H        -2.517256        -0.499049         0.687768
