19
Iteration:  1276
 O         0.215116        -0.095893         0.390124
 C        -0.848088         0.634403         0.992283
 C        -1.467857         1.881558         0.183752
 C        -2.588847         2.274511         1.229018
 O        -2.185040         3.262601         2.212001
 C        -1.466656         2.118079         2.907053
 C        -0.312481         1.420621         2.258603
 C        -2.594681         1.118754         2.395033
 C        -1.959550        -0.026151         1.761312
 H         0.277369        -0.071067        -0.579417
 H        -0.636902         2.646987         0.049182
 H        -1.910690         1.618207        -0.899045
 H        -3.498222         2.624794         0.704958
 H        -1.459378         2.499482         3.953263
 H         0.463507         2.115991         1.999651
 H         0.168948         0.710326         2.854088
 H        -3.405058         0.887251         3.031583
 H        -1.517704        -0.721376         2.491395
 H        -2.538470        -0.758498         1.168845
