19
Iteration:   896
 O         0.224739        -0.052591         0.423100
 C        -0.758810         0.785131         0.998218
 C        -1.621343         1.871913         0.269076
 C        -2.682458         2.259105         1.291956
 O        -2.021010         3.182049         2.134005
 C        -1.496008         2.046365         2.932189
 C        -0.212521         1.523128         2.267065
 C        -2.641972         1.115469         2.360421
 C        -1.992619        -0.062981         1.624090
 H        -0.126392        -0.941221         0.234158
 H        -0.821164         2.652121        -0.017523
 H        -2.102070         1.401249        -0.728456
 H        -3.646605         2.606151         0.935554
 H        -1.395346         2.342919         4.019299
 H         0.615037         2.252612         1.974500
 H         0.208094         0.643797         2.854608
 H        -3.526111         1.226032         2.992435
 H        -1.567751        -0.849517         2.322557
 H        -2.453955        -0.577268         0.711784
