19
Iteration:  2499
 O         0.107181         0.006427         0.282214
 C        -0.819146         0.723090         1.061974
 C        -1.590313         1.817788         0.245148
 C        -2.684654         2.239779         1.267269
 O        -1.932228         3.164472         2.116139
 C        -1.472124         2.049684         2.879116
 C        -0.181392         1.432158         2.280808
 C        -2.658498         1.192515         2.328776
 C        -2.000878        -0.096742         1.822225
 H         0.911749         0.551189         0.277842
 H        -0.962082         2.619954        -0.002124
 H        -1.980003         1.268913        -0.642813
 H        -3.699705         2.590942         0.869696
 H        -1.598611         2.268297         3.916783
 H         0.462267         2.219344         1.735757
 H         0.344213         0.887178         3.078278
 H        -3.536400         1.167133         3.102265
 H        -1.607920        -0.675636         2.656118
 H        -2.677803        -0.655064         1.131376
