19
Iteration:   975charge 0 multiplicity 1
 O         0.092120        -0.044385         0.389126
 C        -0.829387         0.767620         0.989583
 C        -1.595823         1.796629         0.203689
 C        -2.629769         2.221412         1.225787
 O        -2.005227         3.204863         2.166757
 C        -1.464469         2.064288         2.955332
 C        -0.254883         1.484629         2.315432
 C        -2.622153         1.120399         2.322133
 C        -1.925503        -0.087517         1.699673
 H         0.942190         0.388635         0.208892
 H        -1.069865         2.716901        -0.144215
 H        -2.093275         1.455992        -0.766661
 H        -3.495649         2.752008         0.778028
 H        -1.441283         2.275260         4.058814
 H         0.471614         2.252553         1.999566
 H         0.209048         0.733314         3.010222
 H        -3.547189         1.071065         2.967426
 H        -1.316092        -0.685404         2.428134
 H        -2.619083        -0.662121         1.152104
