19
Iteration:  3067charge 0 multiplicity 1
 O        -0.027807        -0.153643         0.235357
 C        -0.775737         0.691924         1.087684
 C        -1.545478         1.792020         0.231778
 C        -2.622710         2.288584         1.264367
 O        -2.051650         3.242572         2.218277
 C        -1.465806         2.117923         2.916375
 C        -0.213205         1.671897         2.204191
 C        -2.570142         1.073103         2.402378
 C        -1.947356        -0.168308         1.727336
 H         0.887280         0.151971         0.467063
 H        -0.818940         2.490101         0.056352
 H        -1.986673         1.544622        -0.766544
 H        -3.483291         2.687621         0.888659
 H        -1.455861         2.293746         3.982916
 H         0.547593         2.453170         1.869868
 H         0.571280         1.213370         2.800030
 H        -3.409653         0.913908         3.113442
 H        -1.741124        -0.907434         2.510161
 H        -2.593074        -0.594967         0.933941
