19
Iteration:  3228
 O         0.180688         0.023405         0.240120
 C        -0.864404         0.677348         1.022970
 C        -1.671737         1.720464         0.199024
 C        -2.616150         2.277327         1.305992
 O        -1.939068         3.202690         2.174759
 C        -1.496641         2.116975         2.934010
 C        -0.316372         1.515755         2.243079
 C        -2.607543         1.138771         2.414438
 C        -1.983364        -0.101395         1.736497
 H         0.979886        -0.079476         0.747348
 H        -0.997522         2.525052        -0.097634
 H        -2.121581         1.182080        -0.595075
 H        -3.546137         2.822254         0.899721
 H        -1.106818         2.425121         3.946085
 H         0.490515         2.192780         1.847091
 H         0.241213         0.692582         2.769270
 H        -3.395797         1.125896         3.166135
 H        -1.496826        -0.708619         2.482203
 H        -2.671539        -0.656299         1.044938
