19
Iteration:   494charge 0 multiplicity 1
 O         0.068165        -0.186731         0.284686
 C        -0.745717         0.780580         1.056761
 C        -1.444447         1.790518         0.191789
 C        -2.556844         2.368654         1.323888
 O        -2.025741         3.184214         2.317498
 C        -1.558867         1.934163         2.998579
 C        -0.279563         1.570324         2.326866
 C        -2.665883         1.173887         2.222351
 C        -1.983106        -0.003228         1.549891
 H         1.034875        -0.070148         0.374947
 H        -0.856110         2.539552        -0.221825
 H        -1.996650         1.261919        -0.589038
 H        -3.357536         2.766656         0.687057
 H        -1.640001         2.074557         4.092328
 H         0.185115         2.566297         2.125906
 H         0.179099         0.934849         3.113739
 H        -3.575797         1.016955         2.762262
 H        -1.683814        -0.749636         2.389906
 H        -2.586268        -0.404025         0.716659
