19
Iteration:  2140charge 0 multiplicity 1
 O         0.074015        -0.102251         0.356448
 C        -0.802183         0.767910         1.012021
 C        -1.750950         1.732185         0.223301
 C        -2.741955         2.187193         1.346605
 O        -1.986743         3.152975         2.082477
 C        -1.463143         2.145195         2.882340
 C        -0.168651         1.698210         2.127029
 C        -2.504546         1.096638         2.441744
 C        -1.857246        -0.057621         1.773107
 H         0.768732        -0.183736         1.056782
 H        -1.101500         2.474684        -0.118039
 H        -2.173268         1.124878        -0.634708
 H        -3.714984         2.414908         0.826309
 H        -1.288207         2.605643         3.813745
 H         0.261769         2.602835         1.924629
 H         0.313601         1.038365         2.885224
 H        -3.522132         1.021821         2.944455
 H        -1.416639        -0.710337         2.547647
 H        -2.489928        -0.758741         1.176501
