19
Iteration:  3326charge 0 multiplicity 1
 O         0.107400        -0.182835         0.265751
 C        -0.681571         0.768559         0.981895
 C        -1.663173         1.811085         0.217271
 C        -2.614507         2.270932         1.348247
 O        -2.069609         3.251432         2.251008
 C        -1.492301         2.091158         2.934803
 C        -0.122756         1.522325         2.151179
 C        -2.654647         1.180056         2.361762
 C        -1.995149        -0.029705         1.702762
 H         0.549026        -0.633164         0.979465
 H        -1.084461         2.752570        -0.006665
 H        -2.176103         1.280036        -0.570452
 H        -3.591274         2.488307         0.767165
 H        -1.447565         2.070296         4.058468
 H         0.674582         2.252175         2.106290
 H         0.413077         0.931861         2.919193
 H        -3.614870         0.963052         2.909112
 H        -1.679593        -0.676849         2.496300
 H        -2.389368        -0.614313         0.817875
