19
Iteration:  1362
 O         0.283648         0.036535         0.405455
 C        -0.804835         0.693898         1.030007
 C        -1.573986         1.834391         0.248429
 C        -2.656654         2.329540         1.191370
 O        -2.060648         3.241475         2.173602
 C        -1.501951         2.098063         2.841585
 C        -0.265787         1.315539         2.251694
 C        -2.668703         1.183954         2.376230
 C        -1.933365        -0.121092         1.777808
 H         0.026260        -0.600327        -0.266883
 H        -1.048141         2.784774        -0.079003
 H        -1.932249         1.221555        -0.554681
 H        -3.692586         2.680112         0.768915
 H        -1.364367         2.356473         3.947142
 H         0.566031         2.039141         2.205287
 H         0.001262         0.480256         2.902947
 H        -3.598351         1.244297         2.877709
 H        -1.543000        -0.883973         2.521582
 H        -2.542383        -0.494512         0.935988
