19
Iteration:  3199
 O        -0.004646        -0.103894         0.262311
 C        -0.749813         0.716332         1.127584
 C        -1.598421         1.812042         0.273306
 C        -2.635399         2.247621         1.249959
 O        -2.074562         3.167423         2.246229
 C        -1.430062         2.071520         2.896100
 C        -0.116524         1.623694         2.208233
 C        -2.614591         1.137664         2.284397
 C        -1.971322        -0.038299         1.727439
 H         0.859233        -0.356755         0.666373
 H        -1.024890         2.645802        -0.104255
 H        -1.944588         1.150329        -0.649434
 H        -3.560043         2.586945         0.885961
 H        -1.227372         2.188854         4.001208
 H         0.411012         2.455522         1.612905
 H         0.398456         0.950427         2.871958
 H        -3.491685         1.126966         3.028816
 H        -1.668472        -0.758242         2.530563
 H        -2.527645        -0.573058         0.939712
