19
Iteration:  2777charge 0 multiplicity 1
 O         0.073730        -0.208470         0.326447
 C        -0.752943         0.779253         0.980409
 C        -1.549449         1.840765         0.227862
 C        -2.674511         2.286950         1.292688
 O        -1.947235         3.216751         2.167034
 C        -1.528964         2.025894         2.955138
 C        -0.175867         1.581842         2.270454
 C        -2.667521         1.101821         2.390581
 C        -1.956394        -0.059779         1.708627
 H         0.585014         0.288764        -0.363275
 H        -1.015726         2.856189        -0.095690
 H        -2.103004         1.432321        -0.621850
 H        -3.675516         2.721570         0.740449
 H        -1.541838         2.299658         4.054895
 H         0.397040         2.471030         2.090822
 H         0.231054         0.842598         3.026640
 H        -3.366398         0.942518         3.190207
 H        -1.648596        -0.948498         2.373498
 H        -2.644916        -0.447635         0.927180
