19
Iteration:  4051
 O         0.140732         0.020046         0.212740
 C        -0.787938         0.819718         1.024118
 C        -1.659692         1.755630         0.213348
 C        -2.694537         2.324039         1.245361
 O        -1.892907         3.132363         2.235553
 C        -1.402543         1.990150         2.928536
 C        -0.211904         1.373864         2.328307
 C        -2.658662         1.213676         2.313974
 C        -2.060712        -0.030892         1.738583
 H         0.955002         0.445828         0.533945
 H        -1.017804         2.570237        -0.225053
 H        -2.292859         1.316833        -0.593326
 H        -3.740223         2.599047         1.041377
 H        -1.318965         2.263280         4.056392
 H         0.517809         2.131008         2.400445
 H         0.001520         0.485505         2.839851
 H        -3.573570         1.105971         2.970492
 H        -1.631003        -0.843760         2.515896
 H        -2.578955        -0.585760         0.899695
