19
Iteration:  1916
 O         0.231519        -0.101375         0.406419
 C        -0.814034         0.707409         1.041492
 C        -1.749511         1.739966         0.221516
 C        -2.723247         2.265731         1.275766
 O        -1.993532         3.204515         2.134930
 C        -1.473743         2.077481         2.896537
 C        -0.208239         1.634518         2.202687
 C        -2.568460         1.175007         2.329031
 C        -1.878235        -0.107074         1.806027
 H        -0.204132        -0.820967        -0.072397
 H        -1.048733         2.587748        -0.133157
 H        -2.205390         1.401420        -0.709466
 H        -3.654451         2.613305         0.859464
 H        -1.422546         2.243967         4.009885
 H         0.099618         2.661839         1.718074
 H         0.723475         1.353992         2.777456
 H        -3.464409         0.943942         2.942990
 H        -1.549712        -0.648812         2.696175
 H        -2.517749        -0.624491         1.102044
