19
Iteration:  3984charge 0 multiplicity 1
 O         0.138697        -0.084242         0.308064
 C        -0.777503         0.823610         0.963790
 C        -1.606075         1.893291         0.223365
 C        -2.691405         2.285294         1.279377
 O        -2.047590         3.223287         2.300363
 C        -1.491165         1.957916         2.962648
 C        -0.092899         1.438393         2.221803
 C        -2.639638         1.158517         2.377204
 C        -1.945307         0.009369         1.624798
 H        -0.208680        -0.992372         0.484072
 H        -0.947724         2.491685        -0.313785
 H        -2.118777         1.168936        -0.537264
 H        -3.556197         2.671624         0.804452
 H        -1.242241         2.189126         4.041545
 H         0.514130         2.333249         2.134871
 H         0.374769         0.611948         2.646511
 H        -3.499521         1.195163         2.977270
 H        -1.699268        -0.838695         2.432781
 H        -2.572348        -0.562729         0.886648
