19
Iteration:  4363charge 0 multiplicity 1
 O        -0.001660        -0.171421         0.191968
 C        -0.749384         0.735928         1.091289
 C        -1.535112         1.859752         0.311573
 C        -2.637478         2.234892         1.365068
 O        -2.070817         3.280888         2.229718
 C        -1.492408         2.132987         2.963053
 C        -0.134064         1.504110         2.235855
 C        -2.653547         1.074843         2.279898
 C        -1.902388        -0.093103         1.686789
 H         0.680420         0.383677        -0.235144
 H        -0.851605         2.665325         0.118469
 H        -2.050465         1.562422        -0.678462
 H        -3.668945         2.547055         0.940124
 H        -1.505392         2.358544         4.018333
 H         0.462692         2.315658         1.958011
 H         0.424508         0.876818         2.860156
 H        -3.540010         0.947530         2.955869
 H        -1.578148        -0.842775         2.432647
 H        -2.395916        -0.682854         0.808347
