19
Iteration:  2337
 O         0.239199         0.132501         0.351375
 C        -0.825556         0.717738         1.083768
 C        -1.692287         1.638005         0.274820
 C        -2.625697         2.194157         1.294030
 O        -1.990339         3.181266         2.102803
 C        -1.450495         2.087581         2.875864
 C        -0.182431         1.513882         2.159833
 C        -2.638833         1.204894         2.395199
 C        -1.987089        -0.082683         1.808558
 H        -0.114735        -0.645844        -0.137318
 H        -1.149744         2.405751        -0.196591
 H        -2.200223         0.986745        -0.502717
 H        -3.596131         2.643304         0.889512
 H        -1.277818         2.329608         3.885814
 H         0.448090         2.269340         1.816515
 H         0.441930         0.968720         2.879876
 H        -3.653071         1.227513         2.966570
 H        -1.796222        -0.824259         2.560799
 H        -2.674536        -0.377137         0.994084
