19
Iteration:  3025charge 0 multiplicity 1
 O         0.124269        -0.041154         0.416980
 C        -0.872762         0.745441         1.025972
 C        -1.725183         1.775874         0.155805
 C        -2.708345         2.339821         1.278817
 O        -1.959118         3.232915         2.221511
 C        -1.457827         2.076614         2.860813
 C        -0.156313         1.457712         2.272982
 C        -2.580390         1.125615         2.300402
 C        -1.903973        -0.103471         1.766585
 H         0.438975         0.151542        -0.468159
 H        -1.207188         2.561436        -0.422133
 H        -2.273271         1.235756        -0.591012
 H        -3.588462         2.789843         0.900455
 H        -1.352389         2.290882         3.893223
 H         0.746861         2.125425         2.124190
 H         0.234986         0.715924         3.096242
 H        -3.395674         0.907739         3.042791
 H        -1.412723        -0.880182         2.392574
 H        -2.406207        -0.694279         1.011698
