19
Iteration:   576
 O         0.128629         0.013604         0.250166
 C        -0.751693         0.761040         1.163421
 C        -1.608313         1.783325         0.257553
 C        -2.552363         2.371886         1.204525
 O        -1.925049         3.177746         2.293566
 C        -1.555037         1.921985         2.939848
 C        -0.292313         1.464155         2.374726
 C        -2.677793         1.184670         2.231593
 C        -1.980899        -0.037179         1.569361
 H         0.662623        -0.506896         0.860792
 H        -0.976086         2.297550        -0.564477
 H        -2.255360         1.205608        -0.418815
 H        -3.389073         2.776058         0.605628
 H        -1.460203         2.160589         3.991806
 H         0.363922         2.311316         2.153853
 H         0.304496         0.855152         3.175760
 H        -3.698163         1.057015         2.731711
 H        -1.772344        -0.805564         2.319535
 H        -2.442608        -0.524815         0.679106
