19
Iteration:  3405charge 0 multiplicity 1
 O         0.084655         0.114393         0.225628
 C        -0.846146         0.782679         1.064137
 C        -1.664760         1.697930         0.202269
 C        -2.604918         2.249360         1.274245
 O        -1.902125         3.227328         2.133026
 C        -1.435634         2.116069         2.956277
 C        -0.247503         1.450862         2.334575
 C        -2.624571         1.172518         2.385733
 C        -1.965173        -0.128464         1.731838
 H         0.516157        -0.610588         0.664912
 H        -1.120362         2.378400        -0.313659
 H        -2.143294         1.103011        -0.594085
 H        -3.529108         2.508551         0.762003
 H        -1.401613         2.251475         4.073529
 H         0.676320         2.137659         2.224557
 H         0.014084         0.610318         2.993732
 H        -3.576041         0.932888         2.902897
 H        -1.523465        -0.939587         2.299051
 H        -2.595333        -0.635028         0.980666
