19
Iteration:  2114
 O         0.173696         0.126724         0.247979
 C        -0.793902         0.686444         1.108968
 C        -1.769436         1.551455         0.183443
 C        -2.664095         2.215219         1.233938
 O        -2.051448         3.227669         2.121455
 C        -1.462309         2.117891         2.910179
 C        -0.167986         1.567728         2.132078
 C        -2.556296         1.156865         2.474890
 C        -1.917466        -0.055385         1.903662
 H         0.528749        -0.667755         0.711884
 H        -1.060357         2.378454        -0.283775
 H        -2.110349         0.890272        -0.629280
 H        -3.508266         2.617204         0.691257
 H        -1.290962         2.431268         3.972548
 H         0.418103         2.427057         1.680303
 H         0.358013         0.943669         2.759192
 H        -3.429155         1.089898         3.016106
 H        -1.692327        -0.812199         2.663691
 H        -2.621001        -0.561508         1.263383
