19
Iteration:  2843charge 0 multiplicity 1
 O         0.109277         0.077758         0.248376
 C        -0.846254         0.711798         1.070307
 C        -1.700293         1.717359         0.309460
 C        -2.632053         2.251229         1.300119
 O        -1.867273         3.193077         2.075021
 C        -1.478230         2.091762         3.000496
 C        -0.207941         1.522973         2.343119
 C        -2.608773         1.140698         2.327123
 C        -1.991651        -0.085762         1.641913
 H         0.770299        -0.410524         0.746787
 H        -1.025618         2.472019        -0.276329
 H        -2.275135         1.185687        -0.449411
 H        -3.549030         2.824058         0.773449
 H        -1.574024         2.264599         4.122968
 H         0.340289         2.269004         1.864597
 H         0.408586         0.746913         2.792933
 H        -3.384232         0.930052         3.051719
 H        -1.765357        -0.878681         2.430106
 H        -2.661040        -0.649284         0.978522
