19
Iteration:  3104charge 0 multiplicity 1
 O         0.177418         0.035723         0.169485
 C        -0.823732         0.777070         1.017233
 C        -1.691828         1.670313         0.125453
 C        -2.687909         2.287583         1.289986
 O        -1.922433         3.190458         2.118741
 C        -1.533846         2.062236         2.980083
 C        -0.165287         1.452172         2.293181
 C        -2.622838         1.165312         2.468997
 C        -1.969977        -0.011960         1.832916
 H         0.746397        -0.510077         0.723081
 H        -1.226923         2.621354        -0.367262
 H        -2.232301         1.110272        -0.568473
 H        -3.572928         2.839714         0.817700
 H        -1.307109         2.358134         4.002825
 H         0.522403         2.250953         2.178055
 H         0.032767         0.538103         2.903042
 H        -3.550164         0.922328         3.025690
 H        -1.458702        -0.668900         2.585475
 H        -2.514627        -0.626846         1.111038
