19
Iteration:  1145
 O         0.144908        -0.127085         0.426434
 C        -0.719354         0.795173         1.013241
 C        -1.633288         1.882674         0.152908
 C        -2.614209         2.264680         1.190872
 O        -2.035223         3.233310         2.282935
 C        -1.533082         2.041403         2.912509
 C        -0.226162         1.533113         2.283777
 C        -2.669241         1.118214         2.244143
 C        -1.840035        -0.072944         1.741152
 H        -0.558820        -0.781491         0.247247
 H        -1.044303         2.724484        -0.232865
 H        -2.192977         1.588423        -0.729983
 H        -3.552539         2.660683         0.729646
 H        -1.542226         2.163848         3.979193
 H         0.561329         2.326514         2.156823
 H         0.340186         0.685209         2.889813
 H        -3.554254         1.031832         2.765792
 H        -1.490925        -0.757319         2.523642
 H        -2.318966        -0.804681         0.988482
