19
Iteration:   197
 O         0.052200        -0.123174         0.348302
 C        -0.769006         0.761376         1.122801
 C        -1.508686         1.839075         0.193146
 C        -2.558507         2.327452         1.236066
 O        -1.908868         3.160222         2.254191
 C        -1.582179         1.995650         2.957435
 C        -0.258662         1.562728         2.441158
 C        -2.662547         1.093297         2.219071
 C        -1.985317        -0.065589         1.545044
 H         0.411990         0.379344        -0.373665
 H        -0.945934         2.713009        -0.179467
 H        -2.075486         1.384946        -0.685567
 H        -3.419327         2.837895         0.850020
 H        -1.585966         2.070241         4.049243
 H         0.250645         2.534015         2.364532
 H         0.423147         1.018628         3.088165
 H        -3.579714         0.873277         2.800699
 H        -1.757818        -0.836728         2.305337
 H        -2.542251        -0.463242         0.696326
