19
Iteration:  1740
 O         0.173899        -0.014859         0.238878
 C        -0.666456         0.740795         1.100605
 C        -1.761771         1.684555         0.166236
 C        -2.706686         2.273645         1.204755
 O        -1.956908         3.227971         2.098250
 C        -1.542259         2.065735         2.951489
 C        -0.176134         1.607219         2.340184
 C        -2.640514         1.125817         2.382927
 C        -1.866008        -0.039444         1.800041
 H        -0.057630        -0.943694         0.358573
 H        -1.263954         2.545983        -0.182495
 H        -2.316979         1.137975        -0.566469
 H        -3.577570         2.787061         0.861183
 H        -1.521412         2.257436         4.042934
 H         0.703186         2.369401         2.254606
 H         0.096411         0.780341         3.124298
 H        -3.661818         0.987189         2.863750
 H        -1.568652        -0.821456         2.556677
 H        -2.405358        -0.720230         1.056056
