19
Iteration:  2059charge 0 multiplicity 1
 O         0.040623         0.015360         0.293050
 C        -0.814357         0.833690         1.099097
 C        -1.661764         1.711689         0.173090
 C        -2.660045         2.096400         1.288086
 O        -2.013359         3.112511         2.032994
 C        -1.395636         2.097379         2.927149
 C        -0.208509         1.641829         2.216266
 C        -2.580964         1.125075         2.471644
 C        -1.904758        -0.030435         1.795302
 H         0.412530        -0.688951         0.858929
 H        -1.248539         2.706238        -0.393492
 H        -1.965144         1.036362        -0.655513
 H        -3.574331         2.451061         0.822015
 H        -1.432088         2.500710         3.986034
 H         0.536331         2.418010         1.819354
 H         0.396887         1.116026         2.922141
 H        -3.413709         1.169960         3.131819
 H        -1.375771        -0.527943         2.626008
 H        -2.492647        -0.654621         1.137020
