19
Iteration:  4765charge 0 multiplicity 1
 O         0.092066        -0.183167         0.262394
 C        -0.804199         0.765175         1.013638
 C        -1.568552         1.851597         0.241007
 C        -2.614771         2.285708         1.245707
 O        -2.050321         3.207422         2.338247
 C        -1.516826         2.045651         2.967705
 C        -0.220724         1.513197         2.252421
 C        -2.622970         1.158118         2.301561
 C        -1.859999        -0.067537         1.710169
 H         0.381122         0.206483        -0.597127
 H        -1.063448         2.676917        -0.147188
 H        -2.221898         1.460137        -0.567562
 H        -3.521369         2.723696         0.780720
 H        -1.284749         2.320123         4.016933
 H         0.433406         2.392248         2.010371
 H         0.352336         0.724709         2.759519
 H        -3.591400         1.045993         2.935780
 H        -1.601512        -0.700981         2.572291
 H        -2.483228        -0.586733         0.972904
