19
Iteration:  4332
 O         0.157561        -0.020307         0.257893
 C        -0.816613         0.787252         1.039367
 C        -1.560290         1.801777         0.176655
 C        -2.631743         2.215023         1.305376
 O        -2.042789         3.189454         2.226715
 C        -1.397338         2.078011         2.958442
 C        -0.263393         1.414266         2.286705
 C        -2.609691         1.147367         2.354968
 C        -2.007197        -0.039372         1.756888
 H         0.008708         0.375383        -0.618637
 H        -0.876300         2.525199        -0.126744
 H        -2.164032         1.447114        -0.723878
 H        -3.621129         2.601507         0.938215
 H        -1.411605         2.264804         4.018390
 H         0.518510         2.171731         2.020806
 H         0.106403         0.580045         2.800461
 H        -3.288957         1.126098         3.260180
 H        -1.540052        -0.797484         2.392123
 H        -2.559344        -0.573098         0.875517
