19
Iteration:  4495charge 0 multiplicity 1
 O         0.148447        -0.075383         0.207736
 C        -0.817220         0.731065         0.984361
 C        -1.530791         1.778431         0.173052
 C        -2.598584         2.323240         1.312527
 O        -2.087436         3.180752         2.329447
 C        -1.497135         2.021397         2.960579
 C        -0.255477         1.570659         2.201963
 C        -2.587138         1.145204         2.338553
 C        -1.917796        -0.009151         1.750588
 H         0.009715        -0.997747         0.479162
 H        -0.980054         2.607114        -0.199474
 H        -2.202755         1.418395        -0.661455
 H        -3.570965         2.788109         0.921912
 H        -1.460726         1.961297         4.001746
 H         0.384757         2.293145         1.805554
 H         0.318921         0.956223         3.054414
 H        -3.456577         1.059676         3.035744
 H        -1.496368        -0.679179         2.473058
 H        -2.498983        -0.538461         0.959415
