19
Iteration:  1151
 O         0.147582        -0.131098         0.393245
 C        -0.764223         0.854764         1.066872
 C        -1.581938         1.848210         0.112663
 C        -2.637065         2.272510         1.211798
 O        -2.024810         3.181273         2.239971
 C        -1.546922         2.080803         2.957204
 C        -0.214393         1.536202         2.316755
 C        -2.622753         1.148876         2.289956
 C        -1.863465        -0.096488         1.680627
 H        -0.452133        -0.840665         0.121218
 H        -0.889922         2.698855        -0.099559
 H        -2.319196         1.437879        -0.645635
 H        -3.554753         2.520458         0.638285
 H        -1.718616         2.157733         4.074181
 H         0.499591         2.303282         2.077277
 H         0.243233         0.761933         2.825907
 H        -3.560189         1.057997         2.985116
 H        -1.420517        -0.746042         2.460629
 H        -2.443685        -0.608086         0.930089
