19
Iteration:  2340
 O         0.221709         0.154090         0.353126
 C        -0.841101         0.709373         1.092753
 C        -1.697438         1.652305         0.257216
 C        -2.628036         2.180996         1.259962
 O        -1.978918         3.180609         2.109507
 C        -1.405686         2.095590         2.867811
 C        -0.192615         1.529706         2.193887
 C        -2.651500         1.198375         2.395567
 C        -1.992485        -0.105986         1.807345
 H        -0.064991        -0.672158        -0.046515
 H        -1.144203         2.467698        -0.290978
 H        -2.160713         0.971627        -0.525249
 H        -3.528630         2.630834         0.907696
 H        -1.266079         2.286961         3.984948
 H         0.443931         2.289991         1.807495
 H         0.492711         0.978837         2.822316
 H        -3.601170         1.208719         2.904111
 H        -1.808655        -0.909773         2.575891
 H        -2.761226        -0.443772         1.091537
