19
Iteration:  3961charge 0 multiplicity 1
 O         0.168460        -0.073007         0.363895
 C        -0.876294         0.699441         0.961302
 C        -1.645664         1.856627         0.242444
 C        -2.630211         2.334883         1.338069
 O        -1.979803         3.205712         2.317935
 C        -1.509333         2.093271         2.910848
 C        -0.208749         1.470822         2.252563
 C        -2.545656         1.098363         2.298448
 C        -1.946783        -0.036068         1.631039
 H        -0.189153        -0.729237        -0.250775
 H        -0.873557         2.525381        -0.007390
 H        -2.153603         1.483191        -0.738991
 H        -3.553967         2.641463         0.926438
 H        -1.461886         2.287214         3.993978
 H         0.354978         2.286806         1.723098
 H         0.332228         0.895165         2.913655
 H        -3.433383         1.031972         2.846600
 H        -1.467455        -0.899914         2.268053
 H        -2.644114        -0.568963         0.934976
