19
Iteration:  3102
 O         0.166939         0.025613         0.167540
 C        -0.815310         0.781391         1.024340
 C        -1.672263         1.686242         0.125392
 C        -2.700438         2.285237         1.286069
 O        -1.933929         3.194142         2.126639
 C        -1.548011         2.060024         2.969909
 C        -0.161629         1.434123         2.285921
 C        -2.615528         1.162949         2.471194
 C        -1.964288         0.007032         1.842292
 H         0.781282        -0.490330         0.751943
 H        -1.265673         2.558123        -0.385254
 H        -2.259322         1.165109        -0.588235
 H        -3.500435         2.808753         0.822361
 H        -1.296846         2.343245         3.963124
 H         0.547915         2.260435         2.151273
 H         0.069443         0.517528         2.863890
 H        -3.570523         0.900937         3.030466
 H        -1.482400        -0.659433         2.605918
 H        -2.449696        -0.637392         1.133739
