19
Iteration:  4680
 O         0.078083         0.185766         0.143893
 C        -0.865129         0.719127         1.097482
 C        -1.598325         1.747619         0.228730
 C        -2.552451         2.275905         1.298865
 O        -1.949844         3.157720         2.146824
 C        -1.466764         2.043374         2.959407
 C        -0.210157         1.466782         2.328157
 C        -2.681251         1.125087         2.308887
 C        -1.925608        -0.114996         1.765636
 H         0.252938        -0.669922         0.568430
 H        -1.020669         2.601106        -0.146533
 H        -2.130683         1.150816        -0.534511
 H        -3.592127         2.640894         0.897138
 H        -1.282895         2.234251         3.992710
 H         0.539388         2.132163         2.042245
 H         0.324486         0.701614         2.955968
 H        -3.606414         1.183687         2.941446
 H        -1.636022        -0.658149         2.687062
 H        -2.729650        -0.677242         1.214133
