19
Iteration:  1908
 O         0.181337        -0.098612         0.388074
 C        -0.812698         0.751459         1.046376
 C        -1.668989         1.742502         0.224505
 C        -2.739184         2.203738         1.252078
 O        -1.963755         3.206224         2.127753
 C        -1.437194         2.069791         2.871978
 C        -0.187324         1.718343         2.238153
 C        -2.640274         1.085091         2.369666
 C        -1.932926        -0.009717         1.790457
 H        -0.127137        -1.008713         0.252404
 H        -1.084809         2.640333        -0.127618
 H        -2.111090         1.176679        -0.554866
 H        -3.770882         2.569268         0.950152
 H        -1.318994         2.177228         3.951837
 H         0.152471         2.646096         1.695489
 H         0.685378         1.206436         2.797661
 H        -3.449321         0.903738         2.965619
 H        -1.356348        -0.837220         2.353012
 H        -2.502221        -0.645196         1.072317
