19
Iteration:   281charge 0 multiplicity 1
 O         0.212090         0.178447         0.262408
 C        -0.751903         0.747136         1.190377
 C        -1.572485         1.744894         0.184560
 C        -2.603707         2.345818         1.229818
 O        -1.852553         3.078471         2.199947
 C        -1.498502         1.998282         2.991195
 C        -0.219957         1.467781         2.414158
 C        -2.784019         1.158958         2.245093
 C        -2.113407        -0.060287         1.641093
 H         0.422638        -0.793163         0.295331
 H        -0.975137         2.199109        -0.671895
 H        -2.217671         1.113929        -0.313900
 H        -3.441065         2.979552         0.893687
 H        -1.474711         2.218554         4.037848
 H         0.236438         2.387916         2.113492
 H         0.211217         0.720336         3.019695
 H        -3.731783         0.914523         2.595875
 H        -1.869916        -0.960695         2.192357
 H        -2.802086        -0.431225         0.813960
