19
Iteration:  2707charge 0 multiplicity 1
 O         0.160747        -0.015042         0.342466
 C        -0.829172         0.748540         1.033844
 C        -1.604397         1.803638         0.156202
 C        -2.655996         2.195018         1.255758
 O        -1.873821         3.220603         2.168809
 C        -1.519513         2.012836         2.991177
 C        -0.212982         1.500546         2.317284
 C        -2.666857         1.173955         2.371605
 C        -1.974610        -0.046778         1.749119
 H        -0.037002         0.034686        -0.625168
 H        -0.979716         2.591883        -0.220399
 H        -2.095177         1.198698        -0.702114
 H        -3.602721         2.675899         0.944828
 H        -1.491791         2.146819         4.038132
 H         0.464237         2.322135         2.034061
 H         0.213895         0.646890         2.709959
 H        -3.705551         1.061887         2.835160
 H        -1.586352        -0.791338         2.446142
 H        -2.627993        -0.546806         0.993199
