19
Iteration:  1469charge 0 multiplicity 1
 O         0.090361         0.035309         0.290080
 C        -0.784400         0.723391         1.141331
 C        -1.596618         1.738564         0.212748
 C        -2.631162         2.197823         1.209761
 O        -1.870078         3.151093         2.061370
 C        -1.577632         2.112253         3.044439
 C        -0.230488         1.511141         2.398728
 C        -2.667606         1.135166         2.342105
 C        -1.973047        -0.066495         1.669118
 H         1.009658         0.341200         0.388278
 H        -1.142721         2.692505        -0.284128
 H        -1.995773         1.151079        -0.628451
 H        -3.627378         2.567109         0.836909
 H        -1.564573         2.663648         4.000734
 H         0.455646         2.417890         2.119752
 H         0.413108         0.686574         2.870176
 H        -3.547210         0.963118         2.919900
 H        -1.900520        -1.010676         2.224642
 H        -2.521249        -0.399658         0.836077
