19
Iteration:  2472charge 0 multiplicity 1
 O         0.149020         0.060331         0.241003
 C        -0.833596         0.797476         0.990753
 C        -1.670879         1.635681         0.189456
 C        -2.607496         2.257417         1.305571
 O        -1.920865         3.246571         2.136354
 C        -1.462878         2.104882         2.973415
 C        -0.212968         1.505529         2.325871
 C        -2.690654         1.127424         2.387919
 C        -1.952762        -0.095042         1.725401
 H         0.566588        -0.601258         0.818466
 H        -0.996135         2.425933        -0.368230
 H        -2.208338         0.947161        -0.493426
 H        -3.501909         2.618197         0.888027
 H        -1.470081         2.468189         4.066368
 H         0.527560         2.171892         1.986498
 H        -0.047467         0.768326         3.093067
 H        -3.569163         0.959631         2.893727
 H        -1.590849        -0.862675         2.448353
 H        -2.610327        -0.515183         0.967866
