19
Iteration:   394charge 0 multiplicity 1
 O         0.183366         0.048100         0.345478
 C        -0.829583         0.748656         1.106394
 C        -1.540077         1.873369         0.158666
 C        -2.580396         2.365399         1.232646
 O        -1.911590         3.170200         2.215991
 C        -1.570725         1.947393         2.974819
 C        -0.340790         1.276998         2.313573
 C        -2.733769         1.158554         2.203412
 C        -1.955090        -0.042468         1.745933
 H         0.918207         0.506415        -0.110855
 H        -0.859127         2.621959        -0.147494
 H        -1.993935         1.404736        -0.673934
 H        -3.466249         2.924294         0.944810
 H        -1.501353         2.114687         4.065042
 H         0.333587         2.155638         2.136256
 H         0.179281         0.425201         2.799417
 H        -3.769769         1.101549         2.692138
 H        -1.558877        -0.684826         2.574536
 H        -2.453938        -0.717888         1.039953
