19
Iteration:  4254charge 0 multiplicity 1
 O         0.074070         0.006555         0.144167
 C        -0.755136         0.654722         1.034449
 C        -1.524301         1.878172         0.245069
 C        -2.637159         2.259813         1.366407
 O        -2.039791         3.258543         2.210525
 C        -1.466433         2.069354         2.950545
 C        -0.245537         1.508839         2.259183
 C        -2.644074         1.093008         2.400711
 C        -1.935301        -0.111498         1.659733
 H         0.297874        -0.849214         0.576809
 H        -0.826495         2.637741         0.060643
 H        -1.851894         1.392441        -0.707472
 H        -3.668025         2.658414         1.086131
 H        -1.273666         2.287277         3.977842
 H         0.573405         2.200166         2.144906
 H         0.103792         0.840286         3.035891
 H        -3.606087         1.001730         2.940382
 H        -1.481167        -0.836197         2.317790
 H        -2.751167        -0.515784         1.016524
