19
Iteration:  3481charge 0 multiplicity 1
 O         0.047688         0.011286         0.198996
 C        -0.818371         0.801721         1.070955
 C        -1.596115         1.724135         0.183407
 C        -2.579681         2.256187         1.245347
 O        -1.974931         3.189319         2.232394
 C        -1.472033         2.061376         2.915395
 C        -0.190873         1.517541         2.321792
 C        -2.645633         1.176036         2.394428
 C        -1.967513        -0.108466         1.728141
 H         0.742847        -0.419143         0.755132
 H        -1.018714         2.502019        -0.238725
 H        -2.093374         1.180011        -0.695546
 H        -3.455890         2.574402         0.715889
 H        -1.423693         2.367126         3.998400
 H         0.547992         2.281794         2.064968
 H         0.189171         0.693265         2.816675
 H        -3.579252         1.129017         2.974718
 H        -1.599715        -0.791546         2.446440
 H        -2.661450        -0.583408         1.068875
