19
Iteration:  4966charge 0 multiplicity 1
 O         0.249397         0.101931         0.358655
 C        -0.833423         0.766620         1.063185
 C        -1.752690         1.790538         0.171894
 C        -2.664824         2.411550         1.354884
 O        -1.836862         3.189690         2.165524
 C        -1.430510         1.996936         2.915903
 C        -0.229085         1.397741         2.266224
 C        -2.689604         1.111364         2.324105
 C        -2.003769        -0.141879         1.738268
 H        -0.098621         0.061740        -0.563903
 H        -1.116555         2.643790        -0.268608
 H        -2.172703         1.070600        -0.500514
 H        -3.719966         2.729850         0.930876
 H        -1.383106         2.293307         3.964204
 H         0.472843         2.171842         1.974805
 H         0.268822         0.602822         2.805653
 H        -3.626979         0.768602         2.691063
 H        -1.661933        -0.920785         2.420553
 H        -2.731062        -0.793072         1.277746
