19
Iteration:  3702
 O         0.025430        -0.099406         0.176567
 C        -0.771070         0.676272         0.999101
 C        -1.548103         1.823865         0.189294
 C        -2.604350         2.223365         1.227598
 O        -2.120786         3.245469         2.290490
 C        -1.518071         2.102349         2.942071
 C        -0.094484         1.516440         2.280548
 C        -2.593115         1.228763         2.402895
 C        -1.959289        -0.090290         1.746472
 H         0.755379        -0.354211         0.785270
 H        -0.833949         2.610891        -0.049642
 H        -1.962717         1.231957        -0.658025
 H        -3.543946         2.492280         0.727696
 H        -1.350749         2.127494         4.071789
 H         0.380200         2.421218         1.842643
 H         0.636435         0.960175         2.857803
 H        -3.496746         1.038400         2.992727
 H        -1.705175        -0.813866         2.462208
 H        -2.727906        -0.537468         1.160017
