19
Iteration:  4845
 O         0.307236         0.080573         0.327647
 C        -0.814650         0.743076         1.049170
 C        -1.749269         1.737472         0.231187
 C        -2.627485         2.341341         1.303264
 O        -1.859055         3.224363         2.241067
 C        -1.535712         2.055138         2.934868
 C        -0.240180         1.423074         2.245896
 C        -2.693535         1.052268         2.332648
 C        -1.965381        -0.035112         1.637234
 H        -0.129308        -0.693202        -0.099117
 H        -1.202111         2.520335        -0.446262
 H        -2.532183         1.192160        -0.290581
 H        -3.657169         2.920231         1.079826
 H        -1.384107         2.171928         4.029928
 H         0.511361         2.111617         1.896771
 H         0.311498         0.661336         2.811823
 H        -3.624841         1.118816         2.907945
 H        -1.624229        -0.813738         2.402646
 H        -2.738196        -0.586098         0.925938
