19
Iteration:  2730charge 0 multiplicity 1
 O         0.251021         0.042970         0.310519
 C        -0.842163         0.695377         1.049209
 C        -1.697596         1.778507         0.279146
 C        -2.632870         2.394191         1.245443
 O        -1.905491         3.176879         2.125915
 C        -1.494318         2.007738         2.852455
 C        -0.258111         1.382827         2.327584
 C        -2.684860         1.165902         2.358450
 C        -1.975563        -0.103404         1.791223
 H         0.297695         0.438065        -0.578310
 H        -0.905010         2.382463        -0.164861
 H        -2.324414         1.305255        -0.557361
 H        -3.527236         3.022597         0.889042
 H        -1.403189         2.224526         3.874413
 H         0.487291         2.073350         1.984835
 H         0.073694         0.642329         2.978218
 H        -3.580159         1.246905         2.981818
 H        -1.390972        -0.591664         2.587128
 H        -2.652910        -0.836084         1.307005
