19
Iteration:  4931charge 0 multiplicity 1
 O         0.131594         0.010577         0.332814
 C        -0.753851         0.789411         1.000302
 C        -1.592279         1.732318         0.144605
 C        -2.667197         2.263950         1.292195
 O        -1.967824         3.183393         2.227419
 C        -1.466415         1.981798         2.995203
 C        -0.217587         1.488331         2.272717
 C        -2.634464         1.138806         2.408400
 C        -1.991371        -0.023858         1.697204
 H        -0.010052         0.073765        -0.634508
 H        -1.120294         2.558155        -0.438806
 H        -2.124125         1.150934        -0.607514
 H        -3.562675         2.884318         1.031908
 H        -1.254327         2.367280         4.001695
 H         0.580533         2.137753         1.990308
 H         0.290137         0.632139         2.795040
 H        -3.618105         0.987759         2.912541
 H        -1.612594        -0.772772         2.366172
 H        -2.734357        -0.292046         1.026810
