19
Iteration:  1304charge 0 multiplicity 1
 O         0.181525        -0.010789         0.394127
 C        -0.794363         0.742574         1.064032
 C        -1.579014         1.742244         0.248868
 C        -2.648537         2.296800         1.261606
 O        -1.975040         3.192114         2.156578
 C        -1.511847         2.031637         2.929206
 C        -0.214922         1.519047         2.346134
 C        -2.682569         1.128066         2.241234
 C        -1.968373        -0.022867         1.689250
 H        -0.056218        -0.412029        -0.469868
 H        -0.981150         2.503463        -0.236501
 H        -1.965155         1.206079        -0.537433
 H        -3.524827         2.819879         0.831751
 H        -1.607090         2.376640         3.952197
 H         0.450970         2.422846         2.179655
 H         0.374376         0.714056         2.891817
 H        -3.570601         0.881389         2.849419
 H        -1.634382        -0.689201         2.517649
 H        -2.418695        -0.690455         0.977173
