19
Iteration:  4927charge 0 multiplicity 1
 O         0.116619         0.006165         0.322677
 C        -0.752319         0.737404         0.995586
 C        -1.565381         1.788280         0.164394
 C        -2.655358         2.256374         1.294911
 O        -2.019228         3.178522         2.238572
 C        -1.477674         2.048246         2.986814
 C        -0.173449         1.449118         2.253602
 C        -2.616773         1.129033         2.375452
 C        -1.977236        -0.019597         1.715447
 H         0.011583         0.006170        -0.628209
 H        -1.186876         2.580983        -0.416502
 H        -2.230442         1.210804        -0.583675
 H        -3.503195         2.794818         1.032373
 H        -1.219110         2.312865         4.044832
 H         0.623170         2.241629         1.964906
 H         0.213694         0.630114         2.972470
 H        -3.596328         1.103862         2.947222
 H        -1.713377        -0.836343         2.434306
 H        -2.762208        -0.385969         0.950775
