19
Iteration:  4798charge 0 multiplicity 1
 O         0.083575         0.019039         0.272678
 C        -0.824155         0.783142         1.071470
 C        -1.557931         1.802568         0.289082
 C        -2.607563         2.238225         1.278640
 O        -1.981877         3.168351         2.170938
 C        -1.460610         2.021995         2.937780
 C        -0.219033         1.474765         2.331127
 C        -2.630296         1.173240         2.354963
 C        -1.946780        -0.098382         1.677736
 H        -0.155788         0.093765        -0.668804
 H        -1.042425         2.632931        -0.062605
 H        -2.145713         1.279243        -0.505327
 H        -3.500386         2.684569         0.770687
 H        -1.339555         2.478576         3.930231
 H         0.590010         2.211940         2.143116
 H         0.272504         0.656348         2.903883
 H        -3.588493         0.965056         2.972952
 H        -1.665521        -0.908491         2.392933
 H        -2.520334        -0.557679         0.866515
