19
Iteration:  4732charge 0 multiplicity 1
 O         0.125198        -0.049912         0.321610
 C        -0.811958         0.740586         1.028240
 C        -1.672953         1.826525         0.231295
 C        -2.689041         2.259670         1.232778
 O        -1.923069         3.193369         2.284641
 C        -1.456120         2.058986         2.959190
 C        -0.213815         1.489155         2.195150
 C        -2.609414         1.114659         2.339354
 C        -1.990417        -0.085383         1.673836
 H         0.955209         0.431313         0.507809
 H        -1.033557         2.575866        -0.089921
 H        -2.136608         1.378905        -0.665843
 H        -3.641489         2.646193         0.862932
 H        -1.307741         2.168224         4.059533
 H         0.241751         2.468700         1.936484
 H         0.486412         0.781854         2.638084
 H        -3.465789         1.092877         3.078504
 H        -1.817023        -0.964576         2.326215
 H        -2.619375        -0.448747         0.856128
