19
Iteration:  1718
 O         0.203012         0.075852         0.372382
 C        -0.835214         0.790486         1.012268
 C        -1.727606         1.712784         0.176888
 C        -2.770576         2.258887         1.284810
 O        -1.970976         3.235055         2.057598
 C        -1.406743         2.093832         2.895158
 C        -0.230437         1.392335         2.355046
 C        -2.567122         1.164759         2.342772
 C        -1.891032        -0.048787         1.718856
 H         0.419225        -0.622648         1.034193
 H        -1.315391         2.374678        -0.508786
 H        -2.376697         1.015737        -0.318553
 H        -3.771864         2.578126         1.100814
 H        -1.381995         2.353768         3.959435
 H         0.558675         2.141341         2.011984
 H         0.257586         0.651708         3.062139
 H        -3.482557         0.957083         2.948836
 H        -1.393966        -0.746520         2.445836
 H        -2.504566        -0.755188         1.071128
