19
Iteration:   334
 O         0.090466        -0.084715         0.282287
 C        -0.744934         0.786907         1.085119
 C        -1.480694         1.900394         0.251347
 C        -2.625726         2.242406         1.224799
 O        -2.083034         3.181772         2.223639
 C        -1.491903         2.021831         2.943622
 C        -0.180271         1.467746         2.329081
 C        -2.635141         1.140735         2.318686
 C        -2.059766        -0.045521         1.593530
 H         0.702428        -0.562646         0.906128
 H        -0.820283         2.849003         0.299696
 H        -1.793290         1.686060        -0.827284
 H        -3.493293         2.708384         0.708419
 H        -1.614223         2.111063         4.022198
 H         0.589971         2.254204         2.135363
 H         0.309535         0.702236         3.048108
 H        -3.437786         1.050817         2.979568
 H        -1.710318        -0.932837         2.109796
 H        -2.664957        -0.313483         0.691564
