19
Iteration:  1666charge 0 multiplicity 1
 O         0.038814        -0.111704         0.271258
 C        -0.766409         0.746251         1.096788
 C        -1.611990         1.666817         0.258671
 C        -2.604832         2.243062         1.237554
 O        -2.098213         3.290026         2.194996
 C        -1.520613         2.078544         2.882307
 C        -0.142681         1.562804         2.282986
 C        -2.652530         1.174107         2.264414
 C        -1.851888        -0.058622         1.787954
 H         0.984508         0.140742         0.248259
 H        -1.024320         2.643120        -0.113348
 H        -2.151069         1.184634        -0.579907
 H        -3.544813         2.626682         0.785645
 H        -1.614184         2.125689         4.014392
 H         0.516644         2.416173         1.962193
 H         0.320193         0.841432         2.870938
 H        -3.426030         0.968512         3.046468
 H        -1.456599        -0.694731         2.656410
 H        -2.279975        -0.779504         1.043740
