19
Iteration:  1068charge 0 multiplicity 1
 O         0.241917         0.010888         0.378213
 C        -0.784336         0.812081         1.041045
 C        -1.718587         1.802061         0.225874
 C        -2.742872         2.321045         1.266198
 O        -1.865354         3.184393         2.056844
 C        -1.497838         2.026463         2.869558
 C        -0.237630         1.388953         2.397985
 C        -2.714997         1.147265         2.327005
 C        -1.909220        -0.081481         1.798963
 H         0.296646         0.379250        -0.529485
 H        -1.288178         2.711169        -0.229715
 H        -2.056458         1.262323        -0.656103
 H        -3.704493         2.566389         0.752935
 H        -1.453902         2.284822         3.911288
 H         0.694352         2.028351         2.226724
 H         0.032025         0.515635         3.220137
 H        -3.638384         0.918956         2.750496
 H        -1.501313        -0.804058         2.574473
 H        -2.559766        -0.700112         1.027542
