19
Iteration:  1199
 O         0.294574         0.143966         0.399596
 C        -0.813964         0.626765         1.040106
 C        -1.644154         1.736678         0.193601
 C        -2.680152         2.381090         1.224823
 O        -1.979756         3.209441         2.113800
 C        -1.444852         2.024397         2.906972
 C        -0.255066         1.371017         2.320042
 C        -2.651590         1.181805         2.337157
 C        -2.034532        -0.120706         1.775442
 H         0.127929         0.057550        -0.564490
 H        -0.885788         2.470096        -0.087734
 H        -2.122301         1.108965        -0.580048
 H        -3.637485         2.817154         0.829905
 H        -1.532938         2.294103         3.939527
 H         0.537643         2.069054         2.022699
 H         0.177552         0.675637         3.004465
 H        -3.518093         1.051167         2.884056
 H        -1.529823        -0.611639         2.597075
 H        -2.783337        -0.713304         1.290373
