19
Iteration:  1232
 O         0.149033        -0.037377         0.396337
 C        -0.765155         0.788882         1.056477
 C        -1.625299         1.690367         0.196524
 C        -2.643413         2.338934         1.259331
 O        -1.907314         3.157464         2.111921
 C        -1.557059         2.018409         3.014610
 C        -0.234580         1.570117         2.378485
 C        -2.652186         1.134309         2.312912
 C        -1.925559        -0.059576         1.644088
 H         0.047698         0.049987        -0.565762
 H        -1.092464         2.408711        -0.472890
 H        -2.154407         1.118110        -0.658934
 H        -3.574356         2.786426         0.838358
 H        -1.657271         2.271569         4.083809
 H         0.333381         2.483334         2.158881
 H         0.338791         0.978895         3.036846
 H        -3.560272         0.937433         2.795048
 H        -1.491900        -0.794127         2.331677
 H        -2.638065        -0.659217         1.104345
