19
Iteration:  2285
 O        -0.027610        -0.119196         0.304167
 C        -0.832514         0.798779         1.063798
 C        -1.554593         1.722691         0.231416
 C        -2.699958         2.183949         1.242744
 O        -2.089674         3.204822         2.122059
 C        -1.471724         2.079143         2.902541
 C        -0.137029         1.613073         2.185005
 C        -2.594687         1.118136         2.431575
 C        -1.820739        -0.001517         1.805239
 H         0.898450         0.170747         0.308625
 H        -0.938206         2.533108        -0.162315
 H        -1.922263         1.028504        -0.626464
 H        -3.550244         2.665112         0.751859
 H        -1.401252         2.263236         4.013033
 H         0.438339         2.477563         1.843488
 H         0.509809         0.975535         2.822380
 H        -3.384594         0.806502         3.161392
 H        -1.374042        -0.578630         2.661686
 H        -2.505870        -0.604542         1.181129
