19
Iteration:  3841
 O         0.105812        -0.203106         0.207676
 C        -0.863842         0.693243         1.051949
 C        -1.622411         1.825363         0.233041
 C        -2.580404         2.325425         1.241505
 O        -2.075128         3.248883         2.328677
 C        -1.446595         2.135980         2.956801
 C        -0.252785         1.574827         2.236633
 C        -2.584521         1.130724         2.337136
 C        -1.898021        -0.116582         1.635913
 H         0.982349        -0.211182         0.668771
 H        -0.931708         2.556185         0.091891
 H        -2.105658         1.379786        -0.671908
 H        -3.429894         2.903595         1.002825
 H        -1.437225         2.216476         4.057450
 H         0.309913         2.425480         1.729140
 H         0.334019         0.921775         2.902229
 H        -3.476240         1.005332         2.997171
 H        -1.504186        -0.872949         2.459015
 H        -2.683468        -0.606935         0.988020
