19
Iteration:    64charge 0 multiplicity 1
 O         0.217676        -0.046782         0.409455
 C        -0.817706         0.672506         1.081136
 C        -1.459412         1.837681         0.210501
 C        -2.503621         2.342144         1.251627
 O        -2.041887         3.200752         2.289738
 C        -1.514151         2.012812         3.043897
 C        -0.173959         1.421279         2.385691
 C        -2.712408         1.134545         2.198487
 C        -2.171243        -0.075700         1.502275
 H         0.397891         0.366623        -0.432791
 H        -0.737752         2.769310        -0.001026
 H        -1.850176         1.640927        -0.788600
 H        -3.426839         2.726612         0.822909
 H        -1.453386         2.307476         4.088878
 H         0.382647         2.293541         2.033614
 H         0.435146         0.784756         3.003006
 H        -3.731599         1.122905         2.592707
 H        -2.166305        -1.073339         1.916886
 H        -2.856696        -0.272859         0.634936
