19
Iteration:  1534
 O         0.173375        -0.022394         0.350744
 C        -0.752983         0.737994         1.064069
 C        -1.511314         1.736376         0.263781
 C        -2.640704         2.212375         1.232601
 O        -2.082340         3.200409         2.189873
 C        -1.468603         2.100582         2.914863
 C        -0.257156         1.556637         2.231168
 C        -2.614627         1.178063         2.413186
 C        -2.004492        -0.070911         1.611769
 H         0.011682        -0.973740         0.531893
 H        -0.916455         2.682878        -0.114470
 H        -1.993613         1.197892        -0.589236
 H        -3.554483         2.564297         0.738141
 H        -1.357344         2.249103         3.998538
 H         0.341010         2.454424         1.884909
 H         0.387762         1.088352         2.944705
 H        -3.344713         1.034932         3.172341
 H        -1.937319        -0.856219         2.373105
 H        -2.521103        -0.418947         0.758697
