19
Iteration:  2362
 O         0.150016         0.111167         0.288007
 C        -0.888517         0.748159         1.031445
 C        -1.716225         1.667017         0.138970
 C        -2.641055         2.280243         1.259361
 O        -1.893177         3.198851         2.073383
 C        -1.550530         2.085353         2.968820
 C        -0.213099         1.521747         2.248091
 C        -2.575774         1.127927         2.431301
 C        -1.926542        -0.134830         1.821262
 H         0.356280        -0.751906         0.734529
 H        -0.959239         2.424171        -0.256870
 H        -2.234016         1.153336        -0.729456
 H        -3.592507         2.681002         0.977365
 H        -1.504549         2.500123         4.027745
 H         0.501279         2.243351         1.993131
 H         0.380323         0.921172         2.906105
 H        -3.418195         1.017951         3.095987
 H        -1.434631        -0.683903         2.686421
 H        -2.490816        -0.724709         1.108929
