19
Iteration:   542charge 0 multiplicity 1
 O         0.233011         0.103600         0.270651
 C        -0.881627         0.692074         1.065256
 C        -1.581253         1.844695         0.219629
 C        -2.655452         2.286311         1.130811
 O        -1.808529         3.228548         2.242343
 C        -1.551592         1.970501         2.920231
 C        -0.356920         1.293675         2.332969
 C        -2.695589         1.186516         2.324943
 C        -1.989816        -0.076089         1.704437
 H         1.099492         0.191416         0.695315
 H        -0.894459         2.752493         0.133631
 H        -1.834463         1.420342        -0.752052
 H        -3.699524         2.574878         0.788710
 H        -1.517290         2.153341         3.992084
 H         0.342013         2.112728         2.147257
 H        -0.051142         0.457947         3.076989
 H        -3.674359         1.221231         2.861896
 H        -1.775466        -0.663263         2.592339
 H        -2.662694        -0.624833         0.996083
