19
Iteration:  3705
 O         0.034549        -0.117673         0.160772
 C        -0.771197         0.685969         1.007720
 C        -1.528608         1.817602         0.172218
 C        -2.608070         2.225625         1.227323
 O        -2.113927         3.238831         2.278919
 C        -1.528800         2.094572         2.980624
 C        -0.107277         1.513365         2.253365
 C        -2.603090         1.205682         2.415144
 C        -1.958342        -0.056088         1.747173
 H         0.713729        -0.359538         0.794369
 H        -0.751157         2.670954        -0.045681
 H        -1.931065         1.288420        -0.685238
 H        -3.616023         2.550010         0.830316
 H        -1.414854         2.215440         4.055518
 H         0.329263         2.412425         1.911971
 H         0.674204         1.097043         2.867768
 H        -3.437054         1.031605         3.026340
 H        -1.684617        -0.853099         2.518650
 H        -2.783791        -0.552133         1.167133
