19
Iteration:   165
 O         0.332367         0.102080         0.463385
 C        -0.783983         0.723277         1.018742
 C        -1.587046         1.869842         0.157145
 C        -2.649514         2.334268         1.232357
 O        -1.933355         3.203523         2.227167
 C        -1.509212         2.001060         2.863162
 C        -0.317918         1.225994         2.367556
 C        -2.640842         1.167946         2.282697
 C        -2.093502        -0.029206         1.644374
 H        -0.046148        -0.192082        -0.417317
 H        -0.933779         2.705252        -0.078520
 H        -2.143274         1.424279        -0.749144
 H        -3.574279         2.762942         0.884727
 H        -1.376559         2.038401         3.953284
 H         0.427565         1.992798         2.303793
 H        -0.157971         0.429796         3.039330
 H        -3.468878         0.972603         2.998934
 H        -1.801266        -0.743898         2.430216
 H        -2.740842        -0.510414         0.924312
