19
Iteration:  1111
 O         0.268582         0.010498         0.378639
 C        -0.774364         0.667201         1.041489
 C        -1.572923         1.752527         0.211008
 C        -2.565953         2.247377         1.190511
 O        -2.035016         3.245229         2.249592
 C        -1.529563         2.049796         2.942085
 C        -0.241507         1.544506         2.226307
 C        -2.676620         1.155477         2.345958
 C        -2.053035        -0.118011         1.732091
 H        -0.209173        -0.579420        -0.260970
 H        -0.879759         2.594834        -0.067176
 H        -2.077169         1.354504        -0.685600
 H        -3.448050         2.833516         0.787389
 H        -1.355958         2.249363         3.998640
 H         0.302339         2.479438         1.899994
 H         0.446720         0.849139         2.885734
 H        -3.554851         1.201462         2.915887
 H        -1.767405        -0.881160         2.486701
 H        -2.648442        -0.498123         0.847608
