19
Iteration:   441
 O         0.177838        -0.045967         0.330221
 C        -0.778160         0.740320         1.074159
 C        -1.486166         1.850460         0.239219
 C        -2.601380         2.283288         1.226883
 O        -1.979692         3.193626         2.215121
 C        -1.574487         2.060927         3.009342
 C        -0.224625         1.354532         2.343437
 C        -2.702058         1.150842         2.344169
 C        -2.036364        -0.032979         1.568040
 H         0.573399         0.442629        -0.418956
 H        -0.924574         2.707729         0.013490
 H        -1.991252         1.441685        -0.650663
 H        -3.361185         2.746028         0.583760
 H        -1.576103         2.341247         4.079259
 H         0.573743         2.096516         2.367155
 H         0.021329         0.578284         3.117632
 H        -3.621962         0.995111         2.842936
 H        -1.747817        -1.003358         2.048212
 H        -2.702922        -0.319999         0.761223
