19
Iteration:  2258
 O         0.204196         0.007224         0.244634
 C        -0.853864         0.644321         1.050115
 C        -1.723663         1.701807         0.247283
 C        -2.635180         2.178643         1.296560
 O        -2.041544         3.247368         2.110368
 C        -1.459201         2.160565         2.914505
 C        -0.180980         1.650879         2.194830
 C        -2.555220         1.162264         2.390403
 C        -1.929625        -0.129769         1.822722
 H         0.641902        -0.731108         0.707169
 H        -1.028989         2.425151        -0.233059
 H        -2.438570         1.262896        -0.457522
 H        -3.628419         2.546319         0.941178
 H        -1.441951         2.316765         3.974556
 H         0.450604         2.449263         1.719291
 H         0.309204         0.924563         2.828697
 H        -3.371866         0.995673         3.091928
 H        -1.858630        -0.726261         2.714180
 H        -2.607820        -0.673873         1.154282
