19
Iteration:   856
 O         0.103206        -0.046240         0.232081
 C        -0.819966         0.743385         1.072770
 C        -1.472573         1.726341         0.165854
 C        -2.507637         2.318366         1.273666
 O        -2.090942         3.178374         2.276406
 C        -1.532621         2.046087         2.994287
 C        -0.228022         1.572463         2.220331
 C        -2.685910         1.206609         2.255644
 C        -1.920854        -0.115279         1.743591
 H         0.569551        -0.518171         0.958725
 H        -0.873168         2.437946        -0.288611
 H        -2.097807         1.389506        -0.552558
 H        -3.412757         2.728197         0.742952
 H        -1.617626         2.077123         4.083644
 H         0.312232         2.474308         2.008106
 H         0.303153         0.892225         2.896354
 H        -3.626095         1.134824         2.853999
 H        -1.688436        -0.818301         2.541422
 H        -2.483902        -0.604744         1.027675
