19
Iteration:  3216charge 0 multiplicity 1
 O         0.139018        -0.030464         0.233574
 C        -0.813864         0.698008         1.008224
 C        -1.606361         1.733630         0.234808
 C        -2.641743         2.264331         1.284609
 O        -2.010884         3.260392         2.163283
 C        -1.467044         2.029111         2.970132
 C        -0.152538         1.488781         2.160223
 C        -2.640051         1.177054         2.446115
 C        -2.007963        -0.071231         1.783307
 H         0.943848        -0.049844         0.813330
 H        -0.929641         2.560929        -0.151760
 H        -2.100937         1.429075        -0.627134
 H        -3.667396         2.551740         0.835179
 H        -1.631954         2.225937         4.032346
 H         0.210923         2.460582         1.894521
 H         0.609463         0.996777         2.863676
 H        -3.527735         1.033340         3.022036
 H        -1.708970        -0.920422         2.387283
 H        -2.721553        -0.523026         1.052417
