19
Iteration:  1934
 O         0.226993        -0.026025         0.406063
 C        -0.818120         0.690069         1.036003
 C        -1.652315         1.696213         0.157000
 C        -2.615868         2.270368         1.248213
 O        -2.094770         3.275728         2.197736
 C        -1.486193         2.147197         2.886966
 C        -0.201173         1.534495         2.118976
 C        -2.629584         1.137401         2.404315
 C        -1.905230        -0.086944         1.882679
 H         0.024231        -0.185027        -0.525737
 H        -1.125887         2.390414        -0.446841
 H        -2.338243         1.045899        -0.492215
 H        -3.592120         2.597914         0.856245
 H        -1.266580         2.300878         3.949163
 H         0.589524         2.121250         1.766241
 H         0.220013         0.789786         2.727907
 H        -3.607809         1.055832         3.016652
 H        -1.283192        -0.673002         2.574670
 H        -2.460003        -0.816331         1.237290
