19
Iteration:  1512
 O         0.236000        -0.076300         0.276592
 C        -0.821166         0.693941         1.026261
 C        -1.582005         1.790908         0.152722
 C        -2.583617         2.323756         1.239262
 O        -2.129530         3.289034         2.271936
 C        -1.553482         2.114417         2.982051
 C        -0.242316         1.490268         2.190616
 C        -2.600844         1.147390         2.293067
 C        -1.939456        -0.126189         1.816343
 H         0.579880        -0.799138         0.815884
 H        -0.723865         2.493434        -0.228745
 H        -2.145257         1.382724        -0.729330
 H        -3.491067         2.752079         0.805119
 H        -1.464455         2.178621         4.076559
 H         0.534553         2.221672         1.811529
 H         0.254464         0.906569         2.959160
 H        -3.602304         1.003809         2.608727
 H        -1.629662        -0.804414         2.652771
 H        -2.571924        -0.665396         1.172135
