19
Iteration:  1081
 O         0.218715         0.074851         0.412448
 C        -0.796798         0.744350         1.107527
 C        -1.688453         1.731670         0.208503
 C        -2.684481         2.243382         1.204948
 O        -1.930353         3.185008         2.052166
 C        -1.504805         2.082439         2.938216
 C        -0.231182         1.381608         2.362083
 C        -2.645845         1.156010         2.411553
 C        -1.960363        -0.047642         1.641993
 H         0.145901         0.181087        -0.550053
 H        -1.088161         2.570624        -0.072253
 H        -2.179473         1.180663        -0.587901
 H        -3.467826         2.869047         0.901804
 H        -1.458261         2.421877         3.955336
 H         0.542538         2.168849         2.293127
 H         0.145551         0.462591         2.976663
 H        -3.370810         1.068130         3.182598
 H        -1.601682        -0.806915         2.346542
 H        -2.562016        -0.493907         0.750563
