19
Iteration:  3062
 O        -0.005775        -0.172272         0.246608
 C        -0.771794         0.682329         1.052957
 C        -1.544319         1.815139         0.230610
 C        -2.592906         2.261799         1.262825
 O        -2.043537         3.234270         2.229802
 C        -1.485029         2.142926         2.928381
 C        -0.197213         1.663624         2.194796
 C        -2.616798         1.064539         2.433068
 C        -1.937927        -0.135401         1.725194
 H         0.904977         0.122205         0.288912
 H        -0.672259         2.578902         0.018788
 H        -1.987413         1.420473        -0.716716
 H        -3.633105         2.650276         0.859006
 H        -1.482049         2.334984         4.034669
 H         0.254232         2.542667         1.689659
 H         0.542152         1.144829         2.854861
 H        -3.383826         0.918536         3.187535
 H        -1.773707        -0.977309         2.422998
 H        -2.663800        -0.393414         0.929458
