19
Iteration:  1408charge 0 multiplicity 1
 O         0.125693        -0.132360         0.405460
 C        -0.736594         0.768023         1.072814
 C        -1.514464         1.787696         0.158028
 C        -2.586199         2.295726         1.278717
 O        -2.002939         3.215700         2.197800
 C        -1.601874         1.969585         2.950651
 C        -0.248853         1.641036         2.268201
 C        -2.627470         1.099063         2.263770
 C        -1.962632        -0.070652         1.743418
 H         0.068018        -0.004225        -0.559987
 H        -0.720327         2.454340        -0.177442
 H        -2.214640         1.318586        -0.644483
 H        -3.451924         2.793187         0.744166
 H        -1.642140         2.217001         4.043700
 H         0.277304         2.556264         2.044159
 H         0.317698         0.952311         2.836206
 H        -3.494456         0.874018         2.953206
 H        -1.569293        -0.725366         2.558624
 H        -2.622199        -0.379365         0.856507
