19
Iteration:  2775charge 0 multiplicity 1
 O         0.085445        -0.199093         0.321265
 C        -0.779015         0.766793         0.974144
 C        -1.535221         1.832131         0.227845
 C        -2.672906         2.294614         1.288782
 O        -1.945071         3.193304         2.160105
 C        -1.522348         2.030697         2.969646
 C        -0.163121         1.591294         2.287550
 C        -2.662754         1.120019         2.403636
 C        -1.963609        -0.057598         1.701508
 H         0.532766         0.336297        -0.387454
 H        -1.058120         2.804732        -0.161337
 H        -2.157935         1.381746        -0.588266
 H        -3.646382         2.700918         0.731380
 H        -1.572407         2.298760         4.008412
 H         0.357635         2.483219         2.163218
 H         0.169739         0.899186         3.010770
 H        -3.370386         0.948621         3.188975
 H        -1.666760        -0.986839         2.281310
 H        -2.670914        -0.437430         0.942188
