19
Iteration:  1138
 O         0.152746        -0.119248         0.438164
 C        -0.741241         0.741871         0.999342
 C        -1.623368         1.891538         0.192670
 C        -2.624032         2.305304         1.214232
 O        -2.057550         3.261764         2.280074
 C        -1.540500         1.985495         2.884571
 C        -0.205800         1.516840         2.239019
 C        -2.661962         1.099808         2.202882
 C        -1.849611        -0.030990         1.765963
 H        -0.332029        -0.933638         0.141776
 H        -1.120185         2.757398        -0.217177
 H        -1.988338         1.412049        -0.752479
 H        -3.508275         2.815828         0.974296
 H        -1.304643         2.138972         3.964511
 H         0.463207         2.376145         2.147605
 H         0.246522         0.795487         2.995224
 H        -3.712980         0.930572         2.683369
 H        -1.439258        -0.590568         2.638927
 H        -2.294756        -0.815852         1.076699
