19
Iteration:  3642charge 0 multiplicity 1
 O         0.139903         0.222421         0.267836
 C        -0.850753         0.784796         1.019692
 C        -1.666554         1.670627         0.143148
 C        -2.644980         2.268203         1.308915
 O        -1.816092         3.097174         2.095681
 C        -1.454532         2.015849         2.954614
 C        -0.227693         1.491949         2.312346
 C        -2.635008         1.146409         2.419826
 C        -2.060846        -0.086165         1.793132
 H         0.584428        -0.538028         0.649497
 H        -1.177253         2.375667        -0.509081
 H        -2.152742         1.099724        -0.613997
 H        -3.552008         2.741640         0.905868
 H        -1.308982         2.320274         3.947076
 H         0.424796         2.301993         2.010878
 H         0.323079         0.652475         2.906831
 H        -3.576544         1.041301         2.926656
 H        -1.942736        -0.805015         2.658146
 H        -2.740117        -0.514410         1.003558
