19
Iteration:  1571charge 0 multiplicity 1
 O         0.229361         0.037476         0.346612
 C        -0.794798         0.833183         1.043359
 C        -1.663693         1.747243         0.177099
 C        -2.690121         2.256998         1.253493
 O        -1.902275         3.186141         2.097978
 C        -1.541602         2.054449         2.948216
 C        -0.346687         1.441686         2.313583
 C        -2.641450         1.131450         2.340507
 C        -1.862006        -0.035227         1.779730
 H        -0.300759        -0.671715        -0.053109
 H        -1.097525         2.497860        -0.358266
 H        -2.158791         1.116779        -0.560869
 H        -3.455268         2.874251         0.664261
 H        -1.455776         2.305130         4.031461
 H         0.427341         2.233849         2.191729
 H         0.047816         0.576536         3.001628
 H        -3.496307         0.968632         3.062815
 H        -1.368303        -0.534451         2.594327
 H        -2.312561        -0.813526         1.164766
