19
Iteration:   365charge 0 multiplicity 1
 O         0.122716        -0.141206         0.311196
 C        -0.766696         0.729539         1.074402
 C        -1.519801         1.843290         0.208647
 C        -2.543889         2.361482         1.246239
 O        -2.038752         3.197273         2.339641
 C        -1.553576         2.026334         2.974530
 C        -0.262266         1.557330         2.307441
 C        -2.686500         1.112870         2.245075
 C        -2.005810        -0.103158         1.574497
 H         1.057866        -0.088104         0.507510
 H        -0.839951         2.669086        -0.107602
 H        -2.131391         1.431746        -0.673721
 H        -3.308871         3.020158         0.800747
 H        -1.561627         2.131694         4.072526
 H         0.441640         2.340048         2.054942
 H         0.459795         0.921987         2.901588
 H        -3.576612         1.046315         2.816131
 H        -1.713160        -1.002677         2.105929
 H        -2.543572        -0.423973         0.669831
