19
Iteration:  3539charge 0 multiplicity 1
 O         0.186344         0.068881         0.224625
 C        -0.861363         0.755509         1.006878
 C        -1.687104         1.694939         0.191416
 C        -2.560500         2.278718         1.295058
 O        -1.981611         3.237569         2.195943
 C        -1.493317         2.038479         2.975051
 C        -0.268184         1.401289         2.248203
 C        -2.599604         1.229448         2.356536
 C        -1.969847        -0.019321         1.778329
 H         0.748245        -0.622564         0.603417
 H        -1.011278         2.390408        -0.303395
 H        -2.273317         0.975863        -0.400753
 H        -3.569343         2.483378         0.910088
 H        -1.246798         2.191585         4.062760
 H         0.525307         2.193397         2.051363
 H         0.358195         0.634233         2.771029
 H        -3.541360         0.932133         2.861662
 H        -1.679868        -0.859175         2.508779
 H        -2.734599        -0.476357         1.108895
