19
Iteration:  1821charge 0 multiplicity 1
 O         0.108826        -0.016323         0.441699
 C        -0.818962         0.848045         1.054337
 C        -1.716172         1.610721         0.120194
 C        -2.648656         2.222800         1.267257
 O        -1.906721         3.203481         2.112522
 C        -1.463478         2.104025         2.923042
 C        -0.235768         1.600130         2.287293
 C        -2.597117         1.095785         2.380736
 C        -1.946381        -0.107916         1.742805
 H         0.532320         0.305295        -0.373163
 H        -1.244459         2.452941        -0.478211
 H        -2.182373         1.000860        -0.615904
 H        -3.642476         2.720665         1.063506
 H        -1.504845         2.426151         3.982188
 H         0.468691         2.410776         2.184938
 H         0.328059         0.828100         2.767681
 H        -3.363687         1.101547         3.090972
 H        -1.465011        -0.874812         2.462326
 H        -2.468814        -0.569860         0.871347
