19
Iteration:   845
 O         0.095965        -0.009461         0.265726
 C        -0.820766         0.691766         1.037000
 C        -1.574212         1.818708         0.199809
 C        -2.555719         2.319516         1.206348
 O        -1.998052         3.233281         2.232220
 C        -1.596426         1.989402         2.962174
 C        -0.238570         1.473903         2.285921
 C        -2.654605         1.109501         2.241781
 C        -1.916300        -0.049654         1.826948
 H         0.938883        -0.317598         0.652445
 H        -0.941089         2.609341        -0.033963
 H        -2.005639         1.346576        -0.602323
 H        -3.454454         2.827883         0.752728
 H        -1.418347         2.311112         3.984795
 H         0.403054         2.272281         1.958671
 H         0.376197         0.799051         2.892809
 H        -3.699113         0.893100         2.542796
 H        -1.506171        -0.567953         2.698480
 H        -2.415409        -0.710438         1.189393
