19
Iteration:  1166charge 0 multiplicity 1
 O         0.173513        -0.022428         0.358095
 C        -0.789241         0.718797         1.032332
 C        -1.530328         1.762509         0.224678
 C        -2.626665         2.242239         1.251456
 O        -2.030621         3.201227         2.123940
 C        -1.524466         2.048689         2.979505
 C        -0.246946         1.536656         2.343892
 C        -2.610906         1.118748         2.380537
 C        -1.975743         0.020283         1.652877
 H        -0.296319        -0.742701        -0.102306
 H        -0.981725         2.584520        -0.245295
 H        -1.744003         1.196404        -0.679285
 H        -3.602898         2.715716         0.960086
 H        -1.409561         2.375845         3.994020
 H         0.436408         2.379408         2.123577
 H         0.335387         0.897915         3.058117
 H        -3.499499         0.921138         2.840884
 H        -1.651974        -0.871368         2.181605
 H        -2.645135        -0.408272         0.902255
