19
Iteration:  3126charge 0 multiplicity 1
 O         0.117501         0.215923         0.286357
 C        -0.881128         0.683194         1.122432
 C        -1.723593         1.653922         0.254493
 C        -2.636977         2.208773         1.313102
 O        -1.825809         3.225345         2.071555
 C        -1.501195         2.122566         2.916819
 C        -0.204385         1.476451         2.303544
 C        -2.536067         1.142864         2.374536
 C        -1.997958        -0.144362         1.702479
 H         0.417084        -0.671946         0.594172
 H        -1.222231         2.435457        -0.431079
 H        -2.428920         1.211762        -0.357685
 H        -3.575830         2.658989         0.889700
 H        -1.336082         2.379909         3.947954
 H         0.273361         2.253246         1.780563
 H         0.352610         0.725187         2.924292
 H        -3.487856         1.043004         2.904358
 H        -1.797888        -0.945815         2.450416
 H        -2.506291        -0.578845         0.845946
