19
Iteration:    23charge 0 multiplicity 1
 O         0.267012         0.138559         0.328630
 C        -0.803529         0.771793         1.042790
 C        -1.585720         1.987862         0.127891
 C        -2.596273         2.389482         1.188033
 O        -1.829526         3.149783         2.203506
 C        -1.577503         1.946132         3.015407
 C        -0.319109         1.192347         2.479679
 C        -2.771839         1.156502         2.172961
 C        -2.005436        -0.089365         1.695423
 H         0.014402        -0.827343         0.252122
 H        -0.946625         2.798012        -0.169853
 H        -2.015971         1.530850        -0.772823
 H        -3.400146         3.005192         0.834988
 H        -1.661856         2.073073         4.084699
 H         0.526700         1.881284         2.467062
 H        -0.036377         0.312149         3.034912
 H        -3.799049         1.083029         2.442907
 H        -1.669905        -0.544689         2.619294
 H        -2.515096        -0.891574         1.150177
