19
Iteration:  3904charge 0 multiplicity 1
 O         0.110635         0.031319         0.232622
 C        -0.846653         0.779255         1.034150
 C        -1.739179         1.715680         0.257857
 C        -2.576891         2.312031         1.338404
 O        -1.866940         3.334436         2.073823
 C        -1.507418         1.994026         3.003593
 C        -0.295081         1.344924         2.400337
 C        -2.633687         1.088168         2.336488
 C        -1.889904        -0.107560         1.705172
 H         0.566075         0.785415        -0.234204
 H        -1.088554         2.457590        -0.319637
 H        -2.189971         1.098405        -0.601280
 H        -3.525902         2.845504         0.958109
 H        -1.416253         2.324707         4.002291
 H         0.520868         2.053198         2.129248
 H         0.087364         0.627711         3.129680
 H        -3.575752         1.055512         2.997231
 H        -1.426848        -0.835102         2.451759
 H        -2.411663        -0.502181         0.796685
