19
Iteration:  4377
 O        -0.005427        -0.160590         0.206150
 C        -0.789105         0.778270         1.003160
 C        -1.570697         1.832377         0.252899
 C        -2.641223         2.293814         1.233204
 O        -2.005983         3.160887         2.266505
 C        -1.498969         1.992337         2.965610
 C        -0.228799         1.607201         2.292238
 C        -2.592769         1.130962         2.384913
 C        -1.888349        -0.042050         1.710576
 H         0.923951         0.149099         0.133720
 H        -1.043338         2.715658        -0.074921
 H        -1.936909         1.293929        -0.664856
 H        -3.493132         2.804312         0.757687
 H        -1.348565         2.096700         4.063081
 H         0.312341         2.538634         1.882159
 H         0.351206         0.992080         2.955801
 H        -3.488459         0.913404         3.014787
 H        -1.404869        -0.752571         2.403140
 H        -2.606932        -0.596929         0.982169
