19
Iteration:  2106charge 0 multiplicity 1
 O         0.204977         0.130666         0.202630
 C        -0.820863         0.667084         1.064604
 C        -1.682533         1.527070         0.270004
 C        -2.704006         2.238078         1.255972
 O        -2.033366         3.217203         2.133249
 C        -1.447086         2.178851         2.863800
 C        -0.198424         1.567338         2.171498
 C        -2.586977         1.205565         2.421869
 C        -1.920894        -0.117306         1.903144
 H         0.491988        -0.741088         0.552536
 H        -1.124124         2.154030        -0.431297
 H        -2.404115         1.008690        -0.440273
 H        -3.741119         2.543845         0.910540
 H        -1.328560         2.533639         3.847445
 H         0.483200         2.337948         1.965296
 H         0.346380         1.020484         2.990517
 H        -3.489814         1.071767         2.991983
 H        -1.505064        -0.719995         2.724068
 H        -2.570825        -0.684733         1.222638
