19
Iteration:   612charge 0 multiplicity 1
 O         0.175723        -0.063702         0.340446
 C        -0.813070         0.746587         0.981330
 C        -1.396281         2.019113         0.275503
 C        -2.582232         2.244960         1.179080
 O        -2.092411         3.157051         2.228554
 C        -1.491340         2.047228         2.949964
 C        -0.339364         1.399660         2.275735
 C        -2.628594         1.165682         2.332830
 C        -2.008829        -0.071853         1.681602
 H        -0.110141        -0.985303         0.383883
 H        -0.646695         2.865663         0.262350
 H        -1.976597         1.767859        -0.665092
 H        -3.487238         2.644445         0.798902
 H        -1.159996         2.116876         4.007265
 H         0.367900         2.204242         1.985554
 H         0.041578         0.724852         3.019967
 H        -3.539536         1.130236         2.916936
 H        -1.481894        -0.787200         2.275308
 H        -2.652235        -0.509501         0.923098
