19
Iteration:  4867
 O         0.098355         0.026724         0.332518
 C        -0.824360         0.791150         1.002593
 C        -1.632909         1.762343         0.176745
 C        -2.629889         2.306659         1.242875
 O        -1.997209         3.171769         2.228943
 C        -1.416200         1.953530         3.040788
 C        -0.205324         1.525717         2.286212
 C        -2.577070         1.160865         2.307877
 C        -1.933951        -0.066575         1.663741
 H        -0.356105        -0.731658        -0.056044
 H        -1.103968         2.732531        -0.178268
 H        -2.122941         1.204153        -0.618212
 H        -3.606882         2.816828         0.767826
 H        -1.279636         1.957284         4.138188
 H         0.490318         2.342500         2.258836
 H         0.319723         0.812036         2.930633
 H        -3.507759         1.173804         2.911059
 H        -1.514279        -0.827788         2.388507
 H        -2.723130        -0.574083         0.951605
