19
Iteration:  1466charge 0 multiplicity 1
 O         0.116903         0.038053         0.295008
 C        -0.809020         0.711858         1.131917
 C        -1.603057         1.737107         0.210373
 C        -2.648214         2.173134         1.215629
 O        -1.868842         3.159679         2.073888
 C        -1.556038         2.122546         3.020278
 C        -0.243322         1.509967         2.428183
 C        -2.639994         1.152735         2.347741
 C        -1.993017        -0.074669         1.645139
 H         1.020709         0.370293         0.259185
 H        -1.131007         2.625631        -0.208714
 H        -2.047956         1.138043        -0.710622
 H        -3.542208         2.539892         0.842838
 H        -1.552799         2.649683         3.952066
 H         0.375116         2.330499         2.190511
 H         0.380305         0.810097         2.957841
 H        -3.538601         1.116173         2.973739
 H        -1.788736        -1.013302         2.164200
 H        -2.658913        -0.445701         0.811959
