19
Iteration:  4551charge 0 multiplicity 1
 O         0.150799         0.086745         0.145702
 C        -0.843623         0.801034         1.003572
 C        -1.651655         1.745768         0.201494
 C        -2.668477         2.279579         1.286914
 O        -1.911981         3.208718         2.164902
 C        -1.503250         2.062224         2.962089
 C        -0.191776         1.374185         2.371567
 C        -2.663911         1.130694         2.400685
 C        -1.926718        -0.063545         1.771216
 H         0.559343        -0.571925         0.732851
 H        -1.200437         2.631377        -0.320379
 H        -2.281144         1.242951        -0.562241
 H        -3.628619         2.724763         0.929128
 H        -1.516195         2.222355         4.032644
 H         0.509053         2.196348         2.142960
 H         0.196277         0.459293         3.009017
 H        -3.585002         1.138972         2.962726
 H        -1.425483        -0.856696         2.309793
 H        -2.480579        -0.584805         0.942306
