19
Iteration:  4796charge 0 multiplicity 1
 O         0.083248        -0.006367         0.255872
 C        -0.814984         0.775165         1.072436
 C        -1.552656         1.799971         0.280714
 C        -2.617516         2.254601         1.300429
 O        -1.990548         3.177598         2.164312
 C        -1.471135         2.023364         2.934509
 C        -0.219325         1.482663         2.351377
 C        -2.637203         1.163071         2.350829
 C        -1.935455        -0.104866         1.661346
 H        -0.151125         0.096063        -0.672373
 H        -0.996800         2.620592        -0.039036
 H        -2.195409         1.330710        -0.497246
 H        -3.484904         2.640817         0.864322
 H        -1.356623         2.480860         3.917512
 H         0.592922         2.264984         2.217683
 H         0.329551         0.673401         2.891656
 H        -3.531497         1.050548         3.029069
 H        -1.693684        -0.827908         2.425956
 H        -2.442540        -0.518450         0.848778
