19
Iteration:  2207
 O         0.152650         0.007802         0.331683
 C        -0.774129         0.763348         1.088304
 C        -1.724356         1.652965         0.282282
 C        -2.700441         2.222096         1.283572
 O        -1.944496         3.241004         1.980453
 C        -1.496006         2.109032         2.886189
 C        -0.183202         1.590318         2.261942
 C        -2.591079         1.136670         2.428856
 C        -1.890469        -0.130404         1.810714
 H         0.066745        -0.023143        -0.631601
 H        -1.229442         2.480454        -0.147854
 H        -2.189316         1.001127        -0.557023
 H        -3.756579         2.589850         1.242245
 H        -1.390896         2.422772         3.920891
 H         0.158093         2.436617         1.838354
 H         0.492966         0.959571         2.876014
 H        -3.557726         0.917299         3.091262
 H        -1.404425        -0.738414         2.611447
 H        -2.624641        -0.870740         1.382615
