19
Iteration:  4790charge 0 multiplicity 1
 O         0.090528        -0.066235         0.226700
 C        -0.771289         0.741026         1.067125
 C        -1.572934         1.795698         0.262594
 C        -2.632614         2.290891         1.339181
 O        -2.001108         3.212077         2.161302
 C        -1.501306         2.046949         2.941541
 C        -0.191414         1.489573         2.374159
 C        -2.644280         1.116687         2.341324
 C        -1.918657        -0.076647         1.650131
 H        -0.166645         0.140758        -0.696091
 H        -0.871549         2.640149        -0.069139
 H        -2.167333         1.419133        -0.587882
 H        -3.688116         2.639510         0.952747
 H        -1.452036         2.314794         4.024279
 H         0.464832         2.332276         2.287338
 H         0.339466         0.742951         2.966529
 H        -3.432857         1.194108         3.099847
 H        -1.648236        -0.771106         2.494889
 H        -2.443630        -0.559582         0.733719
