19
Iteration:    28charge 0 multiplicity 1
 O         0.265539         0.146748         0.343812
 C        -0.795809         0.777413         1.017632
 C        -1.600126         1.902112         0.163081
 C        -2.570776         2.423412         1.209638
 O        -1.815640         3.144376         2.199838
 C        -1.615933         1.903547         2.932663
 C        -0.320603         1.262424         2.471628
 C        -2.756417         1.177403         2.180042
 C        -2.007766        -0.093780         1.709467
 H        -0.060245        -0.710336         0.088311
 H        -0.838786         2.731518         0.044993
 H        -2.019798         1.498676        -0.773163
 H        -3.454310         3.050882         0.889640
 H        -1.725135         2.014322         4.040510
 H         0.600202         1.878350         2.674999
 H        -0.093959         0.277833         3.048316
 H        -3.771920         0.974788         2.653513
 H        -1.606287        -0.658139         2.587569
 H        -2.635164        -0.655600         0.959257
