19
Iteration:   987charge 0 multiplicity 1
 O         0.098548        -0.151599         0.430617
 C        -0.806232         0.806078         1.005667
 C        -1.570209         1.932935         0.135444
 C        -2.666199         2.279732         1.291499
 O        -2.038551         3.188478         2.177982
 C        -1.541673         2.077496         2.866977
 C        -0.259843         1.455758         2.192863
 C        -2.584422         1.087732         2.397855
 C        -1.882384        -0.045108         1.713018
 H         1.009384         0.241244         0.468983
 H        -0.916721         2.837235         0.029358
 H        -2.022716         1.437407        -0.773880
 H        -3.724831         2.508802         0.918116
 H        -1.377955         2.373379         3.945575
 H         0.614485         2.135542         2.080292
 H         0.065143         0.570374         2.888355
 H        -3.480900         0.810170         3.080322
 H        -1.492429        -0.718306         2.540266
 H        -2.337501        -0.642614         0.968749
