19
Iteration:  4469charge 0 multiplicity 1
 O         0.055365         0.040072         0.142617
 C        -0.761433         0.774368         1.090068
 C        -1.608156         1.787161         0.249140
 C        -2.647531         2.334938         1.261792
 O        -1.969002         3.260870         2.164501
 C        -1.516048         2.018127         3.016437
 C        -0.188100         1.464537         2.285074
 C        -2.644025         1.049141         2.295135
 C        -1.904217        -0.113988         1.782122
 H         0.221352        -0.820776         0.558052
 H        -1.104079         2.721595        -0.103874
 H        -2.156315         1.353510        -0.573583
 H        -3.560837         2.763298         0.848053
 H        -1.485433         2.076322         4.144915
 H         0.604122         2.261932         2.002103
 H         0.310341         0.895470         3.144122
 H        -3.555503         0.873637         2.868269
 H        -1.521989        -0.776832         2.581455
 H        -2.328164        -0.645938         0.976374
