19
Iteration:  1676charge 0 multiplicity 1
 O         0.124042        -0.053380         0.216466
 C        -0.768259         0.685735         1.108588
 C        -1.585503         1.682358         0.297555
 C        -2.655138         2.265601         1.237024
 O        -2.068705         3.271328         2.127727
 C        -1.502834         2.014001         2.975650
 C        -0.162250         1.598093         2.237404
 C        -2.635770         1.186044         2.341885
 C        -2.000171        -0.099166         1.766329
 H         1.056497         0.132399         0.429077
 H        -0.886473         2.500951        -0.165122
 H        -1.901652         1.051160        -0.530807
 H        -3.579892         2.561925         0.726842
 H        -1.376791         2.236906         4.079702
 H         0.373561         2.528946         1.863410
 H         0.565053         1.159944         2.861559
 H        -3.606317         1.123623         2.931039
 H        -1.563921        -0.688785         2.673107
 H        -2.682491        -0.806516         1.171304
