19
Iteration:   700
 O         0.208899         0.038334         0.327085
 C        -0.801103         0.687772         1.057968
 C        -1.588633         1.836309         0.257364
 C        -2.671022         2.311695         1.224086
 O        -1.931023         3.205935         2.159770
 C        -1.512414         2.052306         2.903682
 C        -0.234850         1.376237         2.287686
 C        -2.688351         1.109006         2.308709
 C        -2.032002        -0.042963         1.696745
 H         1.055353         0.024666         0.784326
 H        -0.900763         2.701419         0.011791
 H        -2.162678         1.413167        -0.664622
 H        -3.637442         2.708800         0.900171
 H        -1.642449         2.161935         4.008260
 H         0.650988         2.085933         2.187951
 H         0.150008         0.578248         2.978068
 H        -3.559449         1.088641         2.929681
 H        -1.770014        -0.871034         2.358639
 H        -2.715340        -0.481583         1.000492
