19
Iteration:  2781charge 0 multiplicity 1
 O         0.054047        -0.214120         0.333344
 C        -0.719612         0.792266         1.011205
 C        -1.578701         1.866395         0.225604
 C        -2.679581         2.276884         1.292410
 O        -1.960514         3.250454         2.181727
 C        -1.532240         2.028446         2.930021
 C        -0.205698         1.548823         2.252324
 C        -2.658095         1.084103         2.364726
 C        -1.942966        -0.063124         1.716366
 H         0.666790         0.180529        -0.295474
 H        -1.011272         2.757902         0.057287
 H        -1.995309         1.490988        -0.724030
 H        -3.544118         2.685388         0.877338
 H        -1.458783         2.254963         4.026042
 H         0.495165         2.434178         1.972844
 H         0.357093         0.827035         2.945296
 H        -3.452659         0.927165         3.145607
 H        -1.619822        -0.780842         2.455016
 H        -2.562774        -0.490567         0.914702
