19
Iteration:   608charge 0 multiplicity 1
 O         0.185941        -0.069988         0.326289
 C        -0.809354         0.758684         0.998580
 C        -1.427068         1.993828         0.223884
 C        -2.579514         2.262545         1.234608
 O        -2.086745         3.179710         2.220043
 C        -1.507416         2.008719         2.973908
 C        -0.316641         1.429258         2.281703
 C        -2.631887         1.161886         2.327300
 C        -2.032929        -0.053897         1.657723
 H        -0.099410        -0.987020         0.520616
 H        -0.590402         2.736732         0.286492
 H        -1.921973         1.836191        -0.711199
 H        -3.492964         2.652867         0.720919
 H        -1.173354         2.219662         3.985651
 H         0.473817         2.164354         2.055409
 H         0.171403         0.699528         3.056165
 H        -3.608203         1.007941         2.885906
 H        -1.527352        -0.809336         2.282930
 H        -2.591136        -0.723560         0.926947
