19
Iteration:  3350
 O         0.044020        -0.007793         0.278482
 C        -0.861045         0.748085         1.107796
 C        -1.616239         1.752442         0.151922
 C        -2.596958         2.307663         1.286250
 O        -1.927231         3.139002         2.198110
 C        -1.454472         2.079456         2.906549
 C        -0.281411         1.540607         2.244351
 C        -2.563643         1.143982         2.385280
 C        -1.960321        -0.070580         1.708585
 H         0.735456        -0.335945         0.873839
 H        -0.915974         2.417406        -0.070200
 H        -2.175278         1.276484        -0.678826
 H        -3.563394         2.625032         0.835399
 H        -1.488720         2.262980         4.027892
 H         0.422291         2.380091         1.986198
 H         0.488539         1.063918         2.922526
 H        -3.520910         0.828898         2.915461
 H        -1.633768        -0.913793         2.320388
 H        -2.638188        -0.441369         0.875652
