19
Iteration:  1339charge 0 multiplicity 1
 O         0.283253         0.138519         0.397121
 C        -0.876565         0.724467         0.989182
 C        -1.638913         1.699815         0.159157
 C        -2.602423         2.300566         1.259735
 O        -1.882242         3.189770         2.118273
 C        -1.507547         2.089791         2.965069
 C        -0.285531         1.458594         2.379523
 C        -2.644900         1.124294         2.298507
 C        -2.027436        -0.106803         1.707886
 H         0.025425        -0.685795        -0.084376
 H        -0.950884         2.547397        -0.175192
 H        -2.165016         1.230768        -0.620144
 H        -3.659840         2.615859         0.907183
 H        -1.678684         2.192038         4.066326
 H         0.444221         2.317128         2.258352
 H         0.168863         0.620125         2.931144
 H        -3.520203         1.005736         2.871110
 H        -1.786611        -0.695288         2.625263
 H        -2.708957        -0.599106         0.990159
