19
Iteration:  3853charge 0 multiplicity 1
 O         0.064005        -0.119026         0.294045
 C        -0.788825         0.710744         1.009947
 C        -1.515692         1.840505         0.281567
 C        -2.639214         2.283296         1.312332
 O        -2.031339         3.230988         2.318869
 C        -1.501661         2.047601         2.896451
 C        -0.194325         1.586671         2.105551
 C        -2.600631         1.115574         2.325519
 C        -2.033649        -0.104452         1.708302
 H         0.952255         0.009546         0.658024
 H        -0.976543         2.611722        -0.128495
 H        -2.058238         1.430637        -0.589378
 H        -3.488215         2.610922         0.773293
 H        -1.284140         2.159844         3.984077
 H         0.552322         2.333060         1.714780
 H         0.386768         1.035153         2.888215
 H        -3.443216         1.030040         2.978510
 H        -1.687378        -0.896118         2.446013
 H        -2.624299        -0.596802         0.919482
