19
Iteration:  2787
 O         0.029628        -0.206403         0.345324
 C        -0.739536         0.777319         1.062628
 C        -1.619339         1.873590         0.232201
 C        -2.647692         2.257822         1.296558
 O        -1.996263         3.261023         2.206692
 C        -1.510851         2.048825         2.895149
 C        -0.219260         1.506048         2.235978
 C        -2.629776         1.107397         2.334780
 C        -1.915137        -0.044521         1.705487
 H         0.771161         0.126420        -0.191345
 H        -0.906435         2.788540         0.139270
 H        -1.870898         1.537395        -0.777729
 H        -3.679627         2.745319         0.937538
 H        -1.344181         2.173748         3.977469
 H         0.453146         2.252411         1.930877
 H         0.468355         0.869548         2.788477
 H        -3.550979         0.938410         2.867983
 H        -1.500893        -0.699246         2.536993
 H        -2.430910        -0.648923         0.934641
