19
Iteration:  4373charge 0 multiplicity 1
 O         0.000119        -0.175434         0.189568
 C        -0.803900         0.758261         1.044171
 C        -1.568422         1.849840         0.271120
 C        -2.641560         2.278164         1.256454
 O        -2.017709         3.192401         2.261370
 C        -1.452145         2.028688         2.973352
 C        -0.242166         1.605742         2.277605
 C        -2.630605         1.102461         2.362565
 C        -1.863345        -0.049784         1.681827
 H         0.895251         0.141274         0.011541
 H        -1.052546         2.783346         0.019352
 H        -1.856132         1.262288        -0.639547
 H        -3.474897         2.764078         0.646976
 H        -1.477419         2.105876         4.050596
 H         0.330723         2.409514         1.986620
 H         0.423527         1.026760         2.912114
 H        -3.480400         0.947035         3.058113
 H        -1.443663        -0.756707         2.413896
 H        -2.593619        -0.560926         1.045982
