19
Iteration:  4661
 O         0.142355         0.036439         0.125227
 C        -0.734315         0.680224         1.099421
 C        -1.607662         1.749842         0.249712
 C        -2.686892         2.298808         1.254561
 O        -1.926694         3.221164         2.231045
 C        -1.573911         2.002976         2.950303
 C        -0.185551         1.527047         2.239117
 C        -2.639362         1.183044         2.434020
 C        -1.983416        -0.101196         1.773628
 H         0.315880        -0.921129         0.218141
 H        -1.089298         2.801587         0.003170
 H        -2.093928         1.454515        -0.697828
 H        -3.562629         2.769064         0.749973
 H        -1.542566         2.093807         4.040558
 H         0.262533         2.471894         1.810742
 H         0.334427         0.835963         3.010233
 H        -3.564346         1.101030         2.950205
 H        -1.553248        -0.864005         2.414271
 H        -2.448421        -0.667877         0.916025
