19
Iteration:  2636charge 0 multiplicity 1
 O         0.108204         0.058785         0.348852
 C        -0.908943         0.721999         1.078613
 C        -1.613219         1.828712         0.155885
 C        -2.595072         2.359142         1.215044
 O        -1.923173         3.166022         2.219507
 C        -1.506542         2.061636         2.978717
 C        -0.162540         1.479936         2.278484
 C        -2.630185         1.132017         2.288253
 C        -1.965847        -0.140529         1.736684
 H        -0.128718        -0.892900         0.245819
 H        -0.806870         2.550469        -0.216094
 H        -2.023362         1.345218        -0.698416
 H        -3.586853         2.593933         0.874457
 H        -1.396169         2.342294         4.072907
 H         0.453800         2.256634         1.821050
 H         0.258845         0.728899         3.075124
 H        -3.593572         1.014355         2.705727
 H        -1.468082        -0.878263         2.414784
 H        -2.507143        -0.682675         0.959983
