19
Iteration:  1430charge 0 multiplicity 1
 O         0.223732        -0.061053         0.428962
 C        -0.793962         0.762222         1.034718
 C        -1.627685         1.782933         0.219955
 C        -2.671410         2.270109         1.181697
 O        -2.030116         3.221687         2.244197
 C        -1.486837         2.114251         2.920953
 C        -0.241588         1.346749         2.297513
 C        -2.693841         1.231834         2.257703
 C        -1.913768        -0.111256         1.730158
 H         0.527570         0.322569        -0.408463
 H        -0.929290         2.502403        -0.150869
 H        -2.222845         1.279165        -0.602203
 H        -3.535353         2.771544         0.689728
 H        -1.312141         2.364082         4.000246
 H         0.372165         2.115865         1.883546
 H         0.302431         0.681292         2.915911
 H        -3.699453         1.238810         2.782364
 H        -1.381698        -0.595322         2.571488
 H        -2.498762        -0.734820         0.970412
