19
Iteration:   413charge 0 multiplicity 1
 O         0.163212         0.062225         0.321008
 C        -0.812500         0.745787         1.112810
 C        -1.572817         1.771531         0.272530
 C        -2.614756         2.309542         1.225830
 O        -1.837231         3.166784         2.147083
 C        -1.561032         1.990176         2.963544
 C        -0.231367         1.418034         2.463479
 C        -2.679856         1.138750         2.273393
 C        -2.087432        -0.077926         1.540561
 H         0.483108         0.788239        -0.282307
 H        -0.841022         2.629332        -0.092415
 H        -2.078808         1.298390        -0.593668
 H        -3.456658         2.789140         0.695659
 H        -1.735262         2.211256         4.018255
 H         0.634404         2.124603         2.603692
 H         0.101247         0.736803         3.264068
 H        -3.607735         0.963763         2.910170
 H        -1.706194        -0.934752         2.151539
 H        -2.714474        -0.543623         0.736471
