19
Iteration:  1659charge 0 multiplicity 1
 O        -0.005984        -0.150842         0.314556
 C        -0.733513         0.767629         1.070540
 C        -1.609468         1.748297         0.205143
 C        -2.653204         2.272217         1.225350
 O        -2.084407         3.237771         2.224310
 C        -1.532278         2.130872         2.847944
 C        -0.188813         1.529976         2.286675
 C        -2.608270         1.094330         2.292198
 C        -1.767173        -0.042156         1.811791
 H         0.857581         0.284470         0.233351
 H        -1.018836         2.491308        -0.342957
 H        -2.243570         1.262952        -0.575538
 H        -3.564841         2.707634         0.732260
 H        -1.535628         2.277688         3.930032
 H         0.573256         2.267960         2.071307
 H         0.210517         0.770968         3.076898
 H        -3.540840         1.038187         2.863693
 H        -1.419336        -0.621973         2.613778
 H        -2.195784        -0.606767         1.025825
