19
Iteration:  1208
 O         0.271038         0.113717         0.411133
 C        -0.837989         0.728337         1.049132
 C        -1.662925         1.703519         0.148362
 C        -2.614447         2.288386         1.218784
 O        -1.930782         3.235945         2.154710
 C        -1.518197         2.024980         2.905605
 C        -0.284352         1.335099         2.312117
 C        -2.674643         1.164608         2.312008
 C        -1.954102        -0.061944         1.811050
 H         0.131500         0.174957        -0.557729
 H        -1.054191         2.535084        -0.395200
 H        -2.291902         1.398521        -0.762203
 H        -3.540260         2.754105         0.735120
 H        -1.247924         2.240934         3.962202
 H         0.416438         2.151792         2.154508
 H         0.108190         0.666397         2.946231
 H        -3.544793         0.959247         2.899457
 H        -1.661192        -0.670394         2.700493
 H        -2.620020        -0.717198         1.309988
