19
Iteration:  1559
 O         0.152476         0.020940         0.395276
 C        -0.801256         0.777413         1.026512
 C        -1.680346         1.807211         0.198049
 C        -2.660165         2.293388         1.226347
 O        -1.936319         3.166058         2.045110
 C        -1.543482         2.047806         2.901128
 C        -0.129156         1.509985         2.393592
 C        -2.705499         1.105546         2.389459
 C        -1.865858        -0.082545         1.696166
 H        -0.154819        -0.888909         0.186492
 H        -1.126693         2.749242        -0.143517
 H        -2.192471         1.342331        -0.628851
 H        -3.732287         2.673913         0.941832
 H        -1.620001         2.384774         3.972521
 H         0.607650         2.381948         2.273659
 H         0.415369         0.701479         3.034731
 H        -3.612276         0.853876         3.020492
 H        -1.406449        -0.737474         2.433629
 H        -2.429528        -0.672414         1.009204
