19
Iteration:  4650charge 0 multiplicity 1
 O         0.150340        -0.025945         0.176042
 C        -0.797258         0.691438         1.055438
 C        -1.654863         1.798358         0.238597
 C        -2.622106         2.280126         1.311536
 O        -2.012537         3.203417         2.266028
 C        -1.481962         2.041052         2.946338
 C        -0.226527         1.545107         2.232758
 C        -2.685244         1.164308         2.341361
 C        -1.875307        -0.075917         1.691709
 H         0.173315        -0.927053         0.575299
 H        -0.909557         2.687398        -0.049113
 H        -2.033737         1.289687        -0.667692
 H        -3.606098         2.696773         1.017652
 H        -1.303310         2.152593         4.017873
 H         0.556781         2.295212         1.949721
 H         0.491155         0.977423         2.950889
 H        -3.499989         1.166076         3.030384
 H        -1.718944        -0.833411         2.435928
 H        -2.663750        -0.393921         0.973584
