19
Iteration:   946charge 0 multiplicity 1
 O         0.190913         0.062237         0.247072
 C        -0.660086         0.695088         1.101639
 C        -1.612931         1.609953         0.297287
 C        -2.609954         2.284943         1.248868
 O        -1.914327         3.220679         2.174626
 C        -1.539306         2.063953         2.919737
 C        -0.243900         1.513718         2.374942
 C        -2.750222         1.141124         2.278602
 C        -2.039586        -0.089116         1.738813
 H         0.381915         0.662518        -0.493070
 H        -1.178274         2.273973        -0.461690
 H        -2.169779         1.061022        -0.403178
 H        -3.308493         2.960418         0.684483
 H        -1.571305         2.128118         4.014972
 H         0.192298         2.377326         1.858451
 H         0.296349         0.888662         3.160804
 H        -3.547698         0.952596         3.028666
 H        -1.739792        -0.750022         2.556581
 H        -2.729154        -0.438749         0.918002
