19
Iteration:  2927charge 0 multiplicity 1
 O         0.107727        -0.131385         0.338537
 C        -0.806460         0.774504         0.977095
 C        -1.590148         1.857614         0.175286
 C        -2.592886         2.281727         1.313876
 O        -2.123167         3.164214         2.240905
 C        -1.441582         2.003700         2.936824
 C        -0.138500         1.587786         2.205706
 C        -2.621483         1.144975         2.339993
 C        -1.920844        -0.014280         1.743122
 H        -0.162767        -1.065168         0.451532
 H        -0.897896         2.616338        -0.302756
 H        -2.225284         1.481287        -0.630388
 H        -3.527635         2.603561         0.901429
 H        -1.421596         2.090836         3.989278
 H         0.464066         2.458428         1.917415
 H         0.679028         1.050658         2.708656
 H        -3.568350         1.083057         2.855654
 H        -1.485052        -0.707721         2.492002
 H        -2.693123        -0.487112         1.170628
