19
Iteration:   280
 O         0.210564         0.172842         0.268170
 C        -0.755470         0.753177         1.186319
 C        -1.567574         1.751620         0.189969
 C        -2.601773         2.343724         1.239610
 O        -1.851188         3.074434         2.191494
 C        -1.494057         2.009228         2.995424
 C        -0.220375         1.467520         2.410546
 C        -2.786460         1.146073         2.247741
 C        -2.118850        -0.052660         1.630898
 H         0.434329        -0.787796         0.309131
 H        -0.976792         2.207652        -0.683538
 H        -2.243901         1.105500        -0.341872
 H        -3.450853         2.975818         0.887571
 H        -1.475233         2.214657         4.049307
 H         0.241771         2.380673         2.094487
 H         0.206938         0.733359         3.063231
 H        -3.712891         0.886194         2.614047
 H        -1.861272        -0.965158         2.163658
 H        -2.794735        -0.440837         0.812946
