19
Iteration:  2470
 O         0.140029         0.071031         0.261310
 C        -0.832743         0.800328         0.996280
 C        -1.653874         1.632467         0.181650
 C        -2.607168         2.247544         1.322576
 O        -1.924155         3.244460         2.147820
 C        -1.466360         2.116555         2.961683
 C        -0.197332         1.506668         2.318373
 C        -2.681601         1.131881         2.363658
 C        -1.954738        -0.093085         1.716955
 H         0.474272        -0.700351         0.798421
 H        -1.075853         2.390272        -0.426642
 H        -2.261053         0.956082        -0.453261
 H        -3.561626         2.649500         0.914720
 H        -1.492665         2.437728         4.001805
 H         0.533351         2.152996         1.959472
 H        -0.061460         0.715688         3.138512
 H        -3.578170         0.986020         2.940118
 H        -1.555078        -0.854959         2.408976
 H        -2.572755        -0.596258         0.957664
