19
Iteration:  4424
 O         0.244508         0.100431         0.238455
 C        -0.837152         0.658928         1.038012
 C        -1.729046         1.773412         0.214242
 C        -2.659620         2.333501         1.388253
 O        -1.903991         3.205599         2.161055
 C        -1.493804         2.044608         2.858214
 C        -0.248202         1.401459         2.252581
 C        -2.637562         1.135263         2.408171
 C        -1.998576        -0.091835         1.696952
 H         1.092221         0.087473         0.720816
 H        -0.963408         2.464271        -0.302453
 H        -2.277362         1.260814        -0.548280
 H        -3.620159         2.643243         1.068732
 H        -1.520500         2.291244         3.984602
 H         0.509754         2.354752         2.088361
 H         0.173779         0.490635         2.932046
 H        -3.438445         1.043019         3.103448
 H        -1.822831        -0.943771         2.395831
 H        -2.758469        -0.367804         1.005983
