19
Iteration:  3223
 O         0.167634        -0.000762         0.235042
 C        -0.828022         0.669341         0.997573
 C        -1.651800         1.726515         0.225782
 C        -2.623932         2.284001         1.295073
 O        -1.975825         3.235858         2.165304
 C        -1.481294         2.084584         2.958388
 C        -0.231265         1.492545         2.204867
 C        -2.635195         1.151075         2.439694
 C        -2.009550        -0.085643         1.754809
 H         0.989354        -0.056799         0.791271
 H        -0.868618         2.538148        -0.103805
 H        -2.101392         1.252521        -0.716334
 H        -3.541315         2.660114         0.891340
 H        -1.430946         2.365442         4.020270
 H         0.211165         2.470940         1.861859
 H         0.378359         0.720033         2.758314
 H        -3.419642         1.116690         3.209899
 H        -1.513130        -0.844265         2.427309
 H        -2.671612        -0.572337         1.060224
