19
Iteration:  3567
 O         0.015197        -0.101151         0.251662
 C        -0.825671         0.761580         1.075075
 C        -1.576845         1.863032         0.278556
 C        -2.628322         2.288661         1.309567
 O        -1.995260         3.216399         2.219782
 C        -1.461442         2.052840         2.871352
 C        -0.158585         1.606122         2.247906
 C        -2.647704         1.091598         2.301303
 C        -1.962274        -0.115525         1.706843
 H         0.715776        -0.622607         0.696122
 H        -0.908226         2.632485        -0.058279
 H        -1.938397         1.292112        -0.636041
 H        -3.598305         2.576807         0.926585
 H        -1.242807         2.120895         3.933909
 H         0.442779         2.425540         1.830571
 H         0.521790         1.157290         2.965558
 H        -3.454820         0.768416         2.955542
 H        -1.638843        -0.773335         2.482147
 H        -2.524314        -0.716463         0.995489
