19
Iteration:  2729
 O         0.255005         0.037516         0.306791
 C        -0.834978         0.702812         1.047674
 C        -1.703162         1.780626         0.272990
 C        -2.631052         2.403784         1.243650
 O        -1.907349         3.164770         2.122074
 C        -1.496144         2.009303         2.862402
 C        -0.260735         1.374318         2.330346
 C        -2.681485         1.160441         2.356179
 C        -1.975212        -0.095308         1.791306
 H         0.296320         0.415812        -0.575981
 H        -0.934077         2.386256        -0.121579
 H        -2.332715         1.341598        -0.587717
 H        -3.489405         2.993031         0.914765
 H        -1.405300         2.257825         3.879163
 H         0.460491         2.108025         1.948805
 H         0.068246         0.675706         3.014588
 H        -3.581036         1.263737         3.004436
 H        -1.418246        -0.586474         2.582890
 H        -2.655575        -0.845800         1.350342
