19
Iteration:  1071charge 0 multiplicity 1
 O         0.238149         0.027481         0.383416
 C        -0.785966         0.810886         1.074289
 C        -1.736971         1.780989         0.230830
 C        -2.729437         2.313027         1.233889
 O        -1.878859         3.185607         2.051843
 C        -1.497710         2.034638         2.874381
 C        -0.230722         1.366253         2.393610
 C        -2.702713         1.158676         2.362615
 C        -1.910409        -0.077736         1.760343
 H         0.323239         0.277554        -0.544458
 H        -1.355473         2.704049        -0.151746
 H        -2.031857         1.302845        -0.701960
 H        -3.579772         2.653751         0.725789
 H        -1.399921         2.325817         3.910896
 H         0.638965         2.019396         2.308117
 H         0.061151         0.586672         3.116808
 H        -3.623131         0.907661         2.892417
 H        -1.583373        -0.852117         2.445244
 H        -2.492828        -0.692177         1.004321
