19
Iteration:   321charge 0 multiplicity 1
 O         0.162408         0.004110         0.253632
 C        -0.824860         0.727503         1.005958
 C        -1.480916         1.954886         0.236785
 C        -2.600251         2.364130         1.215420
 O        -2.004941         3.175629         2.227797
 C        -1.561639         2.053809         2.948472
 C        -0.290696         1.392745         2.322261
 C        -2.669704         1.093924         2.324474
 C        -1.955376        -0.139812         1.703412
 H         0.459861        -0.654217         0.883472
 H        -0.777643         2.796569         0.007888
 H        -1.832977         1.512983        -0.812549
 H        -3.595897         2.727485         0.868796
 H        -1.227202         2.446368         3.938237
 H         0.590913         2.097743         2.225860
 H         0.015602         0.591423         3.108233
 H        -3.684906         1.052060         2.732597
 H        -1.759217        -0.909645         2.469050
 H        -2.536082        -0.618314         0.914549
