19
Iteration:  1277
 O         0.216614        -0.095876         0.389660
 C        -0.844583         0.631388         0.997267
 C        -1.474805         1.887623         0.177999
 C        -2.586238         2.275613         1.221189
 O        -2.181942         3.265563         2.214913
 C        -1.461210         2.119234         2.907064
 C        -0.321389         1.419516         2.258782
 C        -2.595270         1.116933         2.396997
 C        -1.954462        -0.025609         1.766272
 H         0.268314        -0.073407        -0.584994
 H        -0.671109         2.631289         0.012996
 H        -1.896498         1.651271        -0.890446
 H        -3.478907         2.601417         0.710150
 H        -1.498806         2.474222         3.940215
 H         0.451964         2.114905         1.992932
 H         0.175616         0.679802         2.877790
 H        -3.432185         0.886600         3.050262
 H        -1.525730        -0.725609         2.476375
 H        -2.524638        -0.770523         1.168044
