19
Iteration:   205charge 0 multiplicity 1
 O         0.022856        -0.140224         0.268944
 C        -0.764123         0.677061         1.178518
 C        -1.452034         1.857635         0.208373
 C        -2.554982         2.318793         1.229609
 O        -1.967032         3.226851         2.303915
 C        -1.623490         1.920275         2.922609
 C        -0.278068         1.588209         2.386507
 C        -2.619101         1.140458         2.229723
 C        -1.945422        -0.042699         1.616417
 H         0.650717         0.489310        -0.095641
 H        -0.867166         2.728062        -0.304898
 H        -1.807025         1.315303        -0.610489
 H        -3.477970         2.783689         0.870852
 H        -1.723240         2.013221         3.986933
 H         0.332684         2.444167         1.973121
 H         0.450168         1.063582         3.135742
 H        -3.491116         0.899247         2.735518
 H        -2.007819        -0.897834         2.275221
 H        -2.535734        -0.467801         0.740014
