19
Iteration:  3127
 O         0.114247         0.218971         0.291382
 C        -0.881677         0.684572         1.129182
 C        -1.719205         1.654219         0.254681
 C        -2.635000         2.213092         1.310674
 O        -1.828031         3.228579         2.069839
 C        -1.502940         2.118818         2.914027
 C        -0.198777         1.471608         2.293377
 C        -2.537462         1.137130         2.378954
 C        -2.001837        -0.145374         1.704659
 H         0.425441        -0.682662         0.575310
 H        -1.210739         2.454169        -0.418267
 H        -2.434000         1.186387        -0.332679
 H        -3.596163         2.671273         0.874417
 H        -1.338581         2.383663         3.955343
 H         0.275487         2.246136         1.785435
 H         0.357907         0.736971         2.911630
 H        -3.463759         1.018871         2.893479
 H        -1.793835        -0.930231         2.451061
 H        -2.499354        -0.562012         0.822410
