19
Iteration:  4984charge 0 multiplicity 1
 O         0.195621         0.128553         0.277783
 C        -0.827003         0.696732         0.990257
 C        -1.632479         1.739249         0.219055
 C        -2.631326         2.241623         1.253344
 O        -1.969534         3.197318         2.237659
 C        -1.466701         2.006546         2.932279
 C        -0.238498         1.385801         2.291862
 C        -2.629978         1.218781         2.401131
 C        -1.988572        -0.020346         1.721551
 H        -0.045675        -0.385517        -0.527425
 H        -0.992930         2.554175        -0.143535
 H        -2.342066         1.334373        -0.563809
 H        -3.476568         2.789002         0.825022
 H        -1.402509         2.244648         4.016888
 H         0.680529         1.939586         2.036616
 H         0.177637         0.518500         2.920029
 H        -3.476396         1.252828         3.173029
 H        -1.628451        -0.787754         2.459151
 H        -2.559580        -0.606423         0.972313
