19
Iteration:  2073
 O         0.065610         0.062052         0.240217
 C        -0.800364         0.784007         1.045031
 C        -1.711247         1.636740         0.199589
 C        -2.754616         2.176505         1.221253
 O        -1.977419         3.175084         2.024207
 C        -1.506414         2.155288         2.904435
 C        -0.153419         1.560463         2.301818
 C        -2.564290         1.159559         2.444582
 C        -1.781526        -0.035205         1.899294
 H         0.239399        -0.781168         0.676142
 H        -1.050783         2.456759        -0.183175
 H        -2.246034         1.048115        -0.583930
 H        -3.816958         2.498622         1.022283
 H        -1.388121         2.472953         3.905039
 H         0.537937         2.378390         2.148276
 H         0.284587         0.656766         2.940730
 H        -3.399501         0.866604         3.023677
 H        -1.304791        -0.776679         2.554435
 H        -2.433070        -0.571896         1.188357
