19
Iteration:  1492
 O         0.088244        -0.013326         0.307502
 C        -0.791610         0.749838         1.077672
 C        -1.596983         1.758406         0.221755
 C        -2.646428         2.288550         1.198468
 O        -1.970724         3.192250         2.198684
 C        -1.536317         1.971012         2.850262
 C        -0.227711         1.514162         2.341698
 C        -2.691991         1.166177         2.255231
 C        -1.896446        -0.041932         1.758645
 H         0.882988        -0.282053         0.792563
 H        -0.958678         2.609435        -0.253154
 H        -2.065125         1.233802        -0.583211
 H        -3.558135         2.774915         0.694657
 H        -1.526319         2.184088         3.946265
 H         0.469404         2.439859         2.167053
 H         0.291255         0.757936         3.046339
 H        -3.540997         1.193666         2.933308
 H        -1.296173        -0.525203         2.558115
 H        -2.363495        -0.842829         1.273366
