19
Iteration:  4851charge 0 multiplicity 1
 O         0.235146         0.073060         0.338897
 C        -0.829906         0.765972         1.066856
 C        -1.714149         1.732794         0.155191
 C        -2.634082         2.338110         1.334035
 O        -1.885346         3.233203         2.271748
 C        -1.534881         2.010209         2.899597
 C        -0.200468         1.435133         2.287346
 C        -2.655914         1.100436         2.333117
 C        -1.948290        -0.022917         1.629237
 H        -0.177582        -0.724025        -0.045200
 H        -1.139973         2.293262        -0.507031
 H        -2.441387         1.141583        -0.460699
 H        -3.545951         2.758473         1.136931
 H        -1.542220         2.271056         3.963835
 H         0.447628         2.225665         1.834771
 H         0.306063         0.583553         2.780783
 H        -3.539073         0.885463         2.992438
 H        -1.696663        -0.809432         2.305125
 H        -2.471646        -0.549478         0.896604
