19
Iteration:  2678charge 0 multiplicity 1
 O         0.185192        -0.109648         0.341223
 C        -0.780959         0.661195         1.096944
 C        -1.602557         1.856003         0.240423
 C        -2.678165         2.294168         1.233190
 O        -2.064134         3.237386         2.263274
 C        -1.434530         2.110174         2.933504
 C        -0.151091         1.519557         2.289050
 C        -2.610994         1.139268         2.302675
 C        -1.977175        -0.064116         1.639746
 H        -0.337734        -0.691734        -0.255146
 H        -0.940810         2.657810        -0.249141
 H        -2.148604         1.372231        -0.540850
 H        -3.558274         2.963045         0.894407
 H        -1.337100         2.330541         4.013159
 H         0.419800         2.256021         1.775457
 H         0.370491         0.724722         2.896108
 H        -3.454038         0.874537         2.871864
 H        -1.921113        -0.927962         2.351503
 H        -2.625447        -0.514286         0.878470
