19
Iteration:  1104
 O         0.234978         0.041747         0.373374
 C        -0.798917         0.703438         1.092876
 C        -1.576185         1.731529         0.171466
 C        -2.531757         2.222832         1.212564
 O        -2.014954         3.251107         2.220539
 C        -1.507765         2.063804         2.952536
 C        -0.247462         1.536518         2.241639
 C        -2.637962         1.139229         2.354732
 C        -2.078593        -0.120239         1.717548
 H         0.064111        -0.481425        -0.426227
 H        -1.035068         2.619180        -0.074950
 H        -2.023212         1.187791        -0.653106
 H        -3.435776         2.599210         0.814880
 H        -1.259058         2.261978         3.994878
 H         0.356149         2.421644         2.006539
 H         0.295698         0.935420         3.053257
 H        -3.667285         1.115842         2.771494
 H        -1.885565        -0.987590         2.356320
 H        -2.807728        -0.398498         0.867473
