19
Iteration:  1100
 O         0.221984         0.062362         0.382144
 C        -0.832844         0.732044         1.101532
 C        -1.556773         1.702800         0.169941
 C        -2.552644         2.229580         1.266616
 O        -1.990784         3.227711         2.182376
 C        -1.491201         2.076382         2.953516
 C        -0.264846         1.523533         2.272374
 C        -2.611689         1.141638         2.355450
 C        -2.076228        -0.090782         1.695012
 H         0.095916        -0.331748        -0.505611
 H        -1.016794         2.597896        -0.281202
 H        -2.006348         1.137922        -0.656069
 H        -3.594078         2.420685         0.772994
 H        -1.352347         2.276111         4.013462
 H         0.494965         2.333643         1.981733
 H         0.284018         0.898196         3.159888
 H        -3.595501         1.019896         2.683017
 H        -1.925139        -1.066734         2.239244
 H        -2.869457        -0.421974         0.922658
