19
Iteration:  4395
 O         0.056974        -0.024616         0.305361
 C        -0.840027         0.786912         1.040387
 C        -1.670445         1.809096         0.092853
 C        -2.571198         2.285683         1.329268
 O        -1.969994         3.174195         2.279095
 C        -1.471905         2.016311         3.002407
 C        -0.154330         1.501716         2.191887
 C        -2.675703         1.101861         2.294059
 C        -1.910064        -0.054270         1.724335
 H         0.992945         0.118501         0.556755
 H        -1.025195         2.522302        -0.409407
 H        -2.312588         1.210046        -0.627250
 H        -3.596303         2.615674         0.941412
 H        -1.556500         2.168777         4.049991
 H         0.436506         2.332287         2.080655
 H         0.517442         0.780688         2.674766
 H        -3.632605         1.093392         2.862853
 H        -1.576390        -0.719436         2.526192
 H        -2.545702        -0.602526         1.016964
