19
Iteration:  1048
 O         0.148086         0.002624         0.324477
 C        -0.820550         0.717982         1.089464
 C        -1.631196         1.722145         0.186323
 C        -2.570124         2.301951         1.203742
 O        -1.941193         3.195442         2.167693
 C        -1.582046         2.041879         2.967091
 C        -0.268846         1.477877         2.317651
 C        -2.652770         1.164694         2.313040
 C        -1.921037        -0.078932         1.756118
 H         0.513300         0.548834        -0.402437
 H        -1.040717         2.515700        -0.246395
 H        -2.103346         1.279665        -0.692707
 H        -3.447086         2.777906         0.791472
 H        -1.588886         2.233255         4.023176
 H         0.369805         2.371294         2.140784
 H         0.389166         0.772974         2.889441
 H        -3.494561         1.009233         2.930277
 H        -1.572340        -0.619023         2.645541
 H        -2.405191        -0.951591         1.173122
