19
Iteration:  3395charge 0 multiplicity 1
 O         0.162917         0.124195         0.157055
 C        -0.793728         0.669190         1.088390
 C        -1.684932         1.695928         0.188598
 C        -2.656954         2.298291         1.268497
 O        -1.899888         3.217543         2.142481
 C        -1.499124         2.091924         2.915465
 C        -0.256728         1.438217         2.333389
 C        -2.651075         1.151712         2.365572
 C        -1.927522        -0.088495         1.780548
 H         0.655682        -0.561251         0.607161
 H        -1.220709         2.476192        -0.153053
 H        -2.334413         1.163397        -0.502382
 H        -3.504104         2.912013         1.004451
 H        -1.411023         2.516725         3.945218
 H         0.803468         1.865085         2.316236
 H        -0.070780         0.547254         3.025243
 H        -3.522093         1.118633         3.040777
 H        -1.715793        -0.770663         2.633487
 H        -2.671225        -0.527366         1.117516
