19
Iteration:  3307charge 0 multiplicity 1
 O         0.097726        -0.071134         0.259877
 C        -0.842561         0.676339         1.002786
 C        -1.571930         1.828812         0.231457
 C        -2.677187         2.343256         1.230533
 O        -2.106497         3.218071         2.266635
 C        -1.434633         2.077271         2.906763
 C        -0.214118         1.482777         2.226409
 C        -2.568835         1.167616         2.334862
 C        -1.911623        -0.044112         1.765349
 H         0.383451        -0.821613         0.773224
 H        -0.921684         2.475002        -0.189543
 H        -1.962096         1.253628        -0.664915
 H        -3.604376         2.769443         0.810514
 H        -1.149790         2.205526         3.994755
 H         0.601894         2.199411         1.861164
 H         0.414537         0.848578         2.995895
 H        -3.393400         1.104466         3.118648
 H        -1.460168        -0.771764         2.471565
 H        -2.554175        -0.709715         1.147743
