19
Iteration:  1161
 O         0.163130        -0.075042         0.359005
 C        -0.836084         0.782556         1.052283
 C        -1.519940         1.785799         0.191574
 C        -2.634803         2.267479         1.246941
 O        -2.038851         3.172075         2.138578
 C        -1.560582         2.050140         2.998884
 C        -0.221590         1.550715         2.341575
 C        -2.570825         1.141233         2.358703
 C        -1.936008        -0.005538         1.640306
 H        -0.260040        -0.832941        -0.073508
 H        -0.951944         2.614840        -0.278722
 H        -1.830216         1.162953        -0.705243
 H        -3.587699         2.703207         0.955413
 H        -1.511408         2.317712         4.093496
 H         0.453449         2.365534         2.093863
 H         0.268312         0.836233         3.013662
 H        -3.543248         0.969542         2.978324
 H        -1.482576        -0.825650         2.249566
 H        -2.609992        -0.448028         0.877219
