19
Iteration:   423charge 0 multiplicity 1
 O         0.160308         0.047103         0.286226
 C        -0.777947         0.698504         1.175504
 C        -1.556413         1.755861         0.250465
 C        -2.607689         2.261783         1.289614
 O        -1.884997         3.213736         2.112798
 C        -1.536994         2.020444         2.987060
 C        -0.278054         1.411562         2.548703
 C        -2.609989         1.128445         2.263179
 C        -2.086649        -0.018805         1.488100
 H         0.533418         0.581130        -0.454119
 H        -0.839766         2.616716        -0.183524
 H        -1.978476         1.164260        -0.614182
 H        -3.628559         2.645787         1.065837
 H        -1.619628         2.195687         4.058465
 H         0.326098         2.312244         2.284939
 H         0.043178         0.565996         3.174615
 H        -3.556751         1.025967         2.838196
 H        -1.978454        -0.997696         2.007954
 H        -2.681552        -0.098179         0.536498
