19
Iteration:  4310charge 0 multiplicity 1
 O         0.222449         0.095042         0.328162
 C        -0.831753         0.736101         1.049210
 C        -1.765408         1.769543         0.258266
 C        -2.632982         2.339886         1.253225
 O        -1.828586         3.190947         2.188331
 C        -1.495151         1.977953         2.972374
 C        -0.233874         1.456916         2.262312
 C        -2.648186         1.095501         2.369465
 C        -1.950554        -0.095670         1.680267
 H        -0.133000        -0.237972        -0.524132
 H        -1.188196         2.490300        -0.216789
 H        -2.329247         1.209519        -0.550521
 H        -3.458967         2.983668         0.868820
 H        -1.592337         2.208124         4.005003
 H         0.320758         2.370838         1.966494
 H         0.313071         0.790566         2.887852
 H        -3.637913         0.914437         2.912242
 H        -1.436240        -0.886588         2.222141
 H        -2.878903        -0.497541         1.155776
