19
Iteration:   419charge 0 multiplicity 1
 O         0.163610         0.063642         0.288761
 C        -0.802915         0.695652         1.192247
 C        -1.556599         1.764061         0.247666
 C        -2.619481         2.269646         1.276640
 O        -1.861068         3.200421         2.117499
 C        -1.534660         2.010514         2.981083
 C        -0.250927         1.423360         2.514925
 C        -2.623748         1.122149         2.252259
 C        -2.111376        -0.025645         1.496461
 H         0.553823         0.589505        -0.413652
 H        -0.885596         2.489170        -0.097599
 H        -2.059206         1.234775        -0.586544
 H        -3.580774         2.703353         0.937238
 H        -1.698220         2.181075         4.060495
 H         0.375968         2.321921         2.505927
 H         0.009184         0.615871         3.237252
 H        -3.484688         1.019017         2.836715
 H        -1.779800        -0.933492         1.983960
 H        -2.715647        -0.283608         0.628703
