19
Iteration:  1945
 O         0.194438        -0.004906         0.360117
 C        -0.852670         0.760534         1.006546
 C        -1.652753         1.611287         0.181723
 C        -2.672610         2.209846         1.231923
 O        -2.090862         3.255558         2.191560
 C        -1.387176         2.150790         2.833215
 C        -0.224368         1.474325         2.258564
 C        -2.562785         1.177147         2.401257
 C        -1.907910        -0.052455         1.858011
 H         0.216367         0.182315        -0.600180
 H        -1.045221         2.263305        -0.389928
 H        -2.281010         0.994907        -0.562789
 H        -3.567381         2.558353         0.694033
 H        -1.240653         2.459369         3.886886
 H         0.443579         2.246214         2.026959
 H         0.170372         0.900426         3.017177
 H        -3.545035         1.022698         3.040283
 H        -1.450272        -0.661230         2.665000
 H        -2.660569        -0.670722         1.271339
