19
Iteration:  1649charge 0 multiplicity 1
 O         0.021092        -0.191997         0.375739
 C        -0.763376         0.802788         1.044120
 C        -1.615341         1.881475         0.137447
 C        -2.675666         2.324493         1.189682
 O        -2.087357         3.172334         2.164381
 C        -1.521231         2.103642         2.943171
 C        -0.239447         1.528794         2.290250
 C        -2.552394         1.103876         2.363649
 C        -1.772953        -0.056367         1.775988
 H         0.782998         0.170228        -0.135546
 H        -1.052585         2.526782        -0.440382
 H        -2.034404         1.073975        -0.488249
 H        -3.685893         2.669367         0.867692
 H        -1.200407         2.475299         3.891110
 H         0.576128         2.216554         2.249608
 H         0.089187         0.784203         3.174594
 H        -3.529007         0.832113         2.754456
 H        -1.215979        -0.659107         2.444838
 H        -2.422207        -0.759705         1.235029
