19
Iteration:  1856charge 0 multiplicity 1
 O         0.183137         0.000187         0.168136
 C        -0.729987         0.710536         1.041751
 C        -1.619070         1.657054         0.283310
 C        -2.685949         2.279369         1.285963
 O        -2.022522         3.257469         2.092358
 C        -1.543650         2.172920         2.856988
 C        -0.224319         1.451947         2.235241
 C        -2.680042         1.170246         2.401266
 C        -1.943722        -0.140091         1.936675
 H         1.077999         0.320705         0.373174
 H        -1.012523         2.491847         0.020773
 H        -2.130893         1.172866        -0.605719
 H        -3.593420         2.736553         0.785430
 H        -1.379341         2.435289         3.880010
 H         0.424286         2.213456         2.007734
 H         0.202905         0.703516         2.863614
 H        -3.508562         1.109271         3.080566
 H        -1.630315        -0.735370         2.796685
 H        -2.331706        -0.912193         1.251753
