19
Iteration:   740
 O         0.087956        -0.070528         0.299576
 C        -0.833557         0.752757         1.041913
 C        -1.453919         1.855218         0.225797
 C        -2.547565         2.265671         1.214837
 O        -2.087781         3.196579         2.253951
 C        -1.575364         2.014848         2.941108
 C        -0.191305         1.577728         2.348499
 C        -2.628529         1.136027         2.261672
 C        -1.892791        -0.055963         1.743526
 H        -0.460915        -0.871124         0.084535
 H        -0.714972         2.554593        -0.258586
 H        -1.910428         1.576652        -0.667655
 H        -3.378989         2.658365         0.658944
 H        -1.467454         2.207846         3.993293
 H         0.554657         2.348485         2.100300
 H         0.228008         0.832092         3.082402
 H        -3.568383         0.785730         2.686708
 H        -1.725751        -0.905147         2.412500
 H        -2.509640        -0.473730         0.854129
