19
Iteration:  3887charge 0 multiplicity 1
 O         0.078987        -0.015742         0.263244
 C        -0.776657         0.753801         1.022811
 C        -1.685026         1.801936         0.195250
 C        -2.663662         2.284248         1.294285
 O        -1.854573         3.171978         2.183112
 C        -1.503998         2.093917         2.932565
 C        -0.241416         1.470044         2.326423
 C        -2.605182         1.134759         2.389364
 C        -1.961298        -0.092282         1.682829
 H         0.937018         0.464214         0.226045
 H        -1.232464         2.631415        -0.275265
 H        -2.288834         1.261106        -0.529174
 H        -3.625115         2.588851         0.947227
 H        -1.491780         2.248698         4.054792
 H         0.573676         2.216905         2.241583
 H        -0.024927         0.544059         2.913471
 H        -3.485580         0.878299         2.887985
 H        -1.480800        -0.803138         2.379028
 H        -2.650342        -0.605795         1.013472
