19
Iteration:  2575
 O         0.139820         0.093743         0.402986
 C        -0.901145         0.711742         1.077963
 C        -1.546502         1.817183         0.271022
 C        -2.624790         2.274189         1.203443
 O        -1.952435         3.271457         2.187539
 C        -1.447385         1.964257         2.861350
 C        -0.253539         1.443583         2.220490
 C        -2.558672         1.166475         2.311213
 C        -2.023576        -0.116683         1.738412
 H        -0.109849        -0.811519         0.091012
 H        -0.901118         2.572674        -0.086349
 H        -2.156914         1.341899        -0.575233
 H        -3.674368         2.598217         0.954363
 H        -1.421417         2.204511         3.925205
 H         0.574401         2.135064         1.906226
 H         0.189718         0.856527         2.885467
 H        -3.518565         0.834722         2.890922
 H        -1.445790        -0.714330         2.441810
 H        -2.690190        -0.697592         1.039536
