19
Iteration:  3687
 O         0.041315        -0.024731         0.227104
 C        -0.809408         0.724794         1.113707
 C        -1.595608         1.735654         0.294273
 C        -2.621806         2.305564         1.270478
 O        -2.084839         3.245690         2.245283
 C        -1.396135         2.078580         2.885094
 C        -0.192000         1.513733         2.203887
 C        -2.579140         1.119008         2.277629
 C        -1.953792        -0.084142         1.735417
 H         0.826956        -0.385310         0.656418
 H        -1.014112         2.500964        -0.162530
 H        -2.220868         1.303248        -0.496373
 H        -3.566558         2.706172         0.898618
 H        -1.364620         2.310786         3.924354
 H         0.736802         2.103915         1.997345
 H         0.103937         0.770810         3.050270
 H        -3.479429         1.190996         2.950197
 H        -1.547999        -0.824448         2.472643
 H        -2.438110        -0.645589         0.906262
