19
Iteration:   623
 O         0.148746        -0.028737         0.366495
 C        -0.828336         0.703164         1.032443
 C        -1.409280         1.947157         0.309733
 C        -2.603263         2.272271         1.209361
 O        -2.088897         3.193956         2.269698
 C        -1.535059         2.061351         2.872277
 C        -0.260272         1.386216         2.241948
 C        -2.600262         1.140237         2.324578
 C        -1.951193        -0.059610         1.666362
 H        -0.254344        -0.818533        -0.083581
 H        -0.946573         2.954597         0.131830
 H        -1.473976         1.631369        -0.786297
 H        -3.487046         2.576884         0.697201
 H        -1.691966         2.291171         3.940476
 H         0.618803         2.056800         2.075536
 H         0.117732         0.604796         2.895766
 H        -3.526057         1.198777         2.871657
 H        -1.737355        -0.886493         2.308956
 H        -2.750116        -0.379362         1.020491
