19
Iteration:  3225
 O         0.173906         0.008982         0.236280
 C        -0.841934         0.668497         1.005898
 C        -1.666464         1.720161         0.213867
 C        -2.616610         2.281392         1.301593
 O        -1.961082         3.222222         2.169008
 C        -1.490817         2.099715         2.948791
 C        -0.269413         1.505201         2.221560
 C        -2.627536         1.144003         2.432318
 C        -2.001382        -0.092623         1.746065
 H         1.003567        -0.068493         0.777065
 H        -0.869666         2.574400        -0.106244
 H        -2.087971         1.224689        -0.644274
 H        -3.562785         2.744069         0.884126
 H        -1.287056         2.398888         3.993192
 H         0.317680         2.377468         1.845140
 H         0.340669         0.660614         2.763520
 H        -3.363548         1.134447         3.182192
 H        -1.491724        -0.780427         2.447603
 H        -2.667818        -0.600193         1.052201
