19
Iteration:  3300
 O         0.061406         0.005052         0.252223
 C        -0.827732         0.668587         1.019270
 C        -1.584925         1.804699         0.206676
 C        -2.625332         2.337154         1.229790
 O        -2.067282         3.246774         2.210680
 C        -1.444022         2.079698         2.968306
 C        -0.239839         1.463427         2.217184
 C        -2.540617         1.178502         2.400744
 C        -1.945692        -0.144852         1.743332
 H         0.261401        -0.794670         0.740674
 H        -0.728490         2.587890        -0.069804
 H        -1.964660         1.183108        -0.639276
 H        -3.521683         2.629938         0.734835
 H        -1.415398         2.168405         4.039388
 H         0.427435         2.252689         1.856066
 H         0.382046         1.008439         2.942321
 H        -3.366088         1.013842         3.048989
 H        -1.366679        -0.685194         2.543192
 H        -2.551294        -0.751658         1.093948
