19
Iteration:   217charge 0 multiplicity 1
 O         0.045071        -0.121443         0.223518
 C        -0.726997         0.690937         1.086641
 C        -1.428729         1.811212         0.306000
 C        -2.553701         2.358461         1.201863
 O        -2.086219         3.239125         2.321464
 C        -1.592148         2.005542         3.003345
 C        -0.198134         1.484645         2.282789
 C        -2.692445         1.169406         2.203605
 C        -1.989499        -0.074681         1.675838
 H         0.979860         0.168264         0.185348
 H        -0.618041         2.566707         0.057379
 H        -1.872162         1.370031        -0.578300
 H        -3.435342         2.709855         0.680793
 H        -1.576281         1.989161         4.088175
 H         0.338619         2.428116         1.950392
 H         0.420938         0.935650         3.068290
 H        -3.648782         1.173229         2.679389
 H        -1.654146        -0.827688         2.381111
 H        -2.534030        -0.466000         0.775428
