19
Iteration:   320charge 0 multiplicity 1
 O         0.166418         0.015660         0.253620
 C        -0.831184         0.715564         1.002031
 C        -1.476088         1.954622         0.234441
 C        -2.599952         2.364011         1.219866
 O        -1.997271         3.182895         2.228456
 C        -1.565442         2.050937         2.945170
 C        -0.307065         1.389861         2.322384
 C        -2.670810         1.093535         2.319174
 C        -1.947478        -0.137741         1.705779
 H         0.453045        -0.670186         0.861697
 H        -0.790164         2.759792        -0.005546
 H        -1.856464         1.492363        -0.779113
 H        -3.588419         2.739791         0.888407
 H        -1.230946         2.454210         3.937675
 H         0.607404         2.052634         2.253296
 H         0.041581         0.594270         3.084702
 H        -3.724421         1.036639         2.717686
 H        -1.724361        -0.882666         2.501814
 H        -2.546491        -0.637706         0.959826
