19
Iteration:  4828charge 0 multiplicity 1
 O         0.314867         0.136842         0.335905
 C        -0.862046         0.708716         0.968376
 C        -1.707496         1.770069         0.195495
 C        -2.655539         2.322864         1.353635
 O        -1.894499         3.195767         2.171647
 C        -1.448413         1.950729         2.940392
 C        -0.269371         1.414753         2.284489
 C        -2.663939         1.253225         2.377527
 C        -2.042607        -0.142261         1.722482
 H         0.124925        -0.439888        -0.434234
 H        -1.062735         2.541269        -0.207840
 H        -2.225982         1.333424        -0.697535
 H        -3.494334         2.745825         0.942412
 H        -1.404007         2.329854         3.955685
 H         0.382209         2.304595         2.024108
 H         0.139160         0.546338         2.846800
 H        -3.485164         0.927053         2.985922
 H        -1.759200        -0.894321         2.441359
 H        -2.566237        -0.763371         1.044591
