19
Iteration:  3813charge 0 multiplicity 1
 O         0.026676        -0.025478         0.206890
 C        -0.772828         0.827180         1.084943
 C        -1.602356         1.776823         0.233147
 C        -2.606765         2.213441         1.245272
 O        -1.977411         3.191544         2.212010
 C        -1.484463         2.043592         2.905457
 C        -0.159574         1.476508         2.246779
 C        -2.670098         1.141695         2.352105
 C        -1.939332        -0.005246         1.752188
 H         0.783873        -0.312775         0.746096
 H        -1.112966         2.670814        -0.310470
 H        -2.041057         1.072072        -0.491006
 H        -3.527589         2.754630         0.974812
 H        -1.562088         2.043368         4.010268
 H         0.588331         2.213888         2.084399
 H         0.182371         0.583150         2.853891
 H        -3.494975         1.024385         3.005157
 H        -1.581395        -0.567086         2.548742
 H        -2.628404        -0.542378         1.154741
