19
Iteration:  2520charge 0 multiplicity 1
 O         0.060251        -0.087281         0.380623
 C        -0.807585         0.734527         1.062469
 C        -1.584618         1.736833         0.214660
 C        -2.603726         2.313320         1.233998
 O        -2.025906         3.245931         2.197704
 C        -1.470821         2.091191         2.952256
 C        -0.210560         1.472900         2.249555
 C        -2.630367         1.136059         2.322345
 C        -1.901383        -0.088472         1.721440
 H         0.356752         0.269449        -0.478138
 H        -0.966276         2.565747        -0.093630
 H        -2.285207         1.363017        -0.573606
 H        -3.504804         2.826675         0.795923
 H        -1.313584         2.425923         4.012744
 H         0.491230         2.330575         2.004367
 H         0.144047         0.699007         2.858593
 H        -3.582806         0.869155         2.960551
 H        -1.434808        -0.744829         2.460268
 H        -2.375666        -0.621849         0.851653
