19
Iteration:  1453
 O         0.202883        -0.004770         0.340075
 C        -0.817794         0.747634         1.032254
 C        -1.623845         1.713151         0.226420
 C        -2.632662         2.245422         1.244658
 O        -1.951695         3.221773         2.072452
 C        -1.488053         2.088376         2.896609
 C        -0.255937         1.463593         2.427366
 C        -2.598874         1.168689         2.409162
 C        -2.039244        -0.099776         1.653427
 H         0.746186         0.801573         0.130590
 H        -0.990455         2.492806        -0.074884
 H        -2.047369         1.181986        -0.706596
 H        -3.590846         2.605848         0.901557
 H        -1.498865         2.089545         3.986142
 H         0.469611         2.142503         2.155277
 H        -0.014870         0.846454         3.267113
 H        -3.580310         1.056333         2.975080
 H        -1.635370        -0.869988         2.334139
 H        -2.823414        -0.465056         0.875223
