19
Iteration:  3664charge 0 multiplicity 1
 O         0.166814         0.066287         0.225390
 C        -0.859200         0.762461         1.020509
 C        -1.711690         1.731789         0.179837
 C        -2.699208         2.243093         1.261244
 O        -1.834147         3.220417         2.111676
 C        -1.491860         2.024581         2.979535
 C        -0.237239         1.446567         2.339031
 C        -2.624973         1.138485         2.429800
 C        -1.961052        -0.051070         1.761706
 H         0.786865        -0.481062         0.754868
 H        -1.299281         2.658848        -0.228701
 H        -2.271935         1.331865        -0.635172
 H        -3.603380         2.730732         0.849463
 H        -1.550482         2.329532         3.980306
 H         0.457243         2.247699         2.050206
 H         0.361152         0.634150         2.911081
 H        -3.582475         1.104036         2.935903
 H        -1.381491        -0.796980         2.390334
 H        -2.640336        -0.611594         1.058822
