19
Iteration:  1240
 O         0.150231        -0.074236         0.393262
 C        -0.800816         0.753380         1.100661
 C        -1.611978         1.736147         0.198843
 C        -2.650460         2.301641         1.242689
 O        -1.963385         3.192455         2.121067
 C        -1.551690         2.011871         2.944103
 C        -0.177704         1.560848         2.420564
 C        -2.628955         1.111569         2.289845
 C        -1.937781        -0.037362         1.646132
 H        -0.019073         0.097913        -0.545263
 H        -0.972167         2.604150        -0.273647
 H        -2.255410         1.135723        -0.565611
 H        -3.545437         2.839129         0.774222
 H        -1.334052         2.270442         3.996440
 H         0.182503         2.543839         2.080911
 H         0.516656         1.102934         3.059933
 H        -3.397207         0.779499         2.985123
 H        -1.719681        -0.800476         2.440256
 H        -2.556681        -0.445848         0.836082
