19
Iteration:  1021charge 0 multiplicity 1
 O         0.084205        -0.140756         0.329953
 C        -0.747558         0.711809         1.127581
 C        -1.525525         1.746770         0.245916
 C        -2.572670         2.269406         1.281479
 O        -2.095637         3.211057         2.253345
 C        -1.533492         2.098085         2.915116
 C        -0.187419         1.614269         2.221778
 C        -2.599542         1.148402         2.307578
 C        -2.013716        -0.065171         1.634316
 H         0.917464         0.339465         0.137283
 H        -0.910539         2.485170        -0.354164
 H        -2.007732         1.215616        -0.604732
 H        -3.607311         2.580156         0.831008
 H        -1.450231         2.209178         4.028335
 H         0.361604         2.522551         1.854424
 H         0.531673         1.015624         2.928841
 H        -3.502926         0.940310         2.990448
 H        -1.883438        -0.916778         2.402831
 H        -2.540272        -0.521906         0.779136
