19
Iteration:   453
 O         0.162256        -0.098617         0.382294
 C        -0.828286         0.764123         0.991765
 C        -1.472783         1.895059         0.263671
 C        -2.572052         2.361924         1.230522
 O        -2.034365         3.194852         2.263004
 C        -1.526312         1.960482         2.888730
 C        -0.287957         1.416046         2.364943
 C        -2.669679         1.142917         2.233522
 C        -2.019914        -0.048690         1.656119
 H         0.556347         0.480112        -0.275257
 H        -0.705426         2.622061         0.056963
 H        -1.822133         1.577122        -0.742486
 H        -3.567102         2.788019         1.014303
 H        -1.440947         2.001211         3.982247
 H         0.546946         2.057065         2.123995
 H         0.124193         0.490916         2.856260
 H        -3.541273         1.097783         2.808040
 H        -1.555142        -0.595634         2.488292
 H        -2.550492        -0.683085         0.942031
