19
Iteration:  3843charge 0 multiplicity 1
 O         0.103138        -0.191739         0.225384
 C        -0.866554         0.705535         1.038811
 C        -1.598548         1.831702         0.252904
 C        -2.590339         2.307012         1.243739
 O        -2.061612         3.245582         2.335171
 C        -1.462979         2.127712         2.945320
 C        -0.246220         1.592352         2.196057
 C        -2.585395         1.115832         2.329156
 C        -1.926876        -0.126094         1.648975
 H         0.993596        -0.189151         0.648205
 H        -0.934347         2.608236         0.073816
 H        -2.078570         1.354894        -0.587529
 H        -3.405082         2.900667         0.970139
 H        -1.418582         2.207905         4.085241
 H         0.373478         2.381493         1.669493
 H         0.337419         0.932477         2.996885
 H        -3.383370         1.032421         2.993149
 H        -1.605378        -0.852467         2.423205
 H        -2.655758        -0.609045         1.020830
