19
Iteration:  2727
 O         0.260202         0.026837         0.301840
 C        -0.822917         0.715699         1.044630
 C        -1.714214         1.779574         0.255991
 C        -2.627729         2.416503         1.241295
 O        -1.908466         3.145029         2.117696
 C        -1.500553         2.013907         2.882844
 C        -0.266957         1.362435         2.327785
 C        -2.675650         1.152327         2.351041
 C        -1.976023        -0.079724         1.791538
 H         0.288471         0.379216        -0.589819
 H        -0.971265         2.447320        -0.065963
 H        -2.319269         1.414554        -0.622147
 H        -3.442063         2.931655         0.944530
 H        -1.411168         2.330147         3.934317
 H         0.416141         2.173057         1.902695
 H         0.096085         0.699694         3.118942
 H        -3.568641         1.271358         3.036735
 H        -1.477395        -0.593525         2.593773
 H        -2.651759        -0.855765         1.417003
