19
Iteration:  1620charge 0 multiplicity 1
 O         0.192314        -0.029362         0.423311
 C        -0.789583         0.668825         1.100115
 C        -1.617249         1.729638         0.276061
 C        -2.695483         2.194000         1.277306
 O        -1.970789         3.208115         2.150976
 C        -1.517720         2.092452         2.865306
 C        -0.190048         1.562500         2.185553
 C        -2.635232         1.163261         2.367661
 C        -1.975294        -0.041745         1.714283
 H         0.302589         0.237337        -0.511246
 H        -0.897336         2.518869         0.006644
 H        -2.008559         1.255660        -0.630635
 H        -3.661213         2.485334         0.946875
 H        -1.290929         2.328332         3.903892
 H         0.413166         2.416289         1.833610
 H         0.297697         1.056638         2.948970
 H        -3.593634         1.010666         2.817245
 H        -1.824787        -0.967565         2.345535
 H        -2.658455        -0.350979         0.849699
