19
Iteration:   253
 O         0.166395         0.024577         0.345985
 C        -0.814940         0.766491         1.049639
 C        -1.581286         1.868050         0.222528
 C        -2.673149         2.272381         1.233524
 O        -1.926245         3.243420         2.208943
 C        -1.546112         1.977884         2.926470
 C        -0.296200         1.368187         2.323336
 C        -2.580677         1.207169         2.304227
 C        -1.964248        -0.101236         1.615319
 H         0.639625        -0.608940         0.935442
 H        -0.930179         2.699221         0.092162
 H        -1.917337         1.624612        -0.888000
 H        -3.643689         2.664959         0.920384
 H        -1.529966         2.086154         4.047998
 H         0.486270         2.184898         2.294479
 H         0.047540         0.412674         2.888385
 H        -3.600722         1.090767         2.838110
 H        -1.654608        -1.037815         2.134554
 H        -2.685016        -0.423326         0.879918
