19
Iteration:  3636
 O         0.144499         0.221112         0.258078
 C        -0.864398         0.751289         1.076571
 C        -1.639943         1.639684         0.168052
 C        -2.689505         2.298797         1.260910
 O        -1.829467         3.158940         2.130155
 C        -1.428256         2.030164         2.926024
 C        -0.217661         1.432988         2.290613
 C        -2.665351         1.106597         2.427553
 C        -2.040358        -0.068470         1.764802
 H         0.596025        -0.545168         0.638727
 H        -1.118238         2.457242        -0.384997
 H        -2.315299         0.979120        -0.496335
 H        -3.521692         2.894202         0.857100
 H        -1.426994         2.477919         3.997676
 H         0.488548         2.239013         1.966438
 H         0.395055         0.786522         2.838001
 H        -3.620941         1.017862         3.028557
 H        -1.716541        -0.855146         2.448254
 H        -2.677789        -0.536610         1.042347
