19
Iteration:  4273charge 0 multiplicity 1
 O         0.231025         0.078694         0.218002
 C        -0.863889         0.778500         0.981283
 C        -1.682767         1.756752         0.206768
 C        -2.619095         2.285955         1.240379
 O        -1.945631         3.187840         2.261392
 C        -1.482947         2.043603         2.986536
 C        -0.230230         1.413777         2.303520
 C        -2.620950         1.138725         2.362481
 C        -1.991371        -0.033222         1.743322
 H        -0.007084        -0.865173         0.379499
 H        -1.084569         2.666630        -0.207610
 H        -2.297807         1.331927        -0.603111
 H        -3.523374         2.773110         0.794102
 H        -1.348587         2.129097         4.103290
 H         0.485598         2.110021         1.981382
 H         0.348857         0.646932         2.813108
 H        -3.480441         0.959219         2.963562
 H        -1.468816        -0.850188         2.326241
 H        -2.717308        -0.485015         1.013531
