19
Iteration:  4464charge 0 multiplicity 1
 O         0.037571         0.086945         0.153515
 C        -0.806450         0.770033         1.108521
 C        -1.580015         1.790579         0.233299
 C        -2.628490         2.296384         1.278753
 O        -1.966081         3.210943         2.144047
 C        -1.509779         1.996188         2.948434
 C        -0.203316         1.473610         2.318584
 C        -2.634065         1.084024         2.326999
 C        -1.890760        -0.073037         1.787855
 H         0.311254        -0.741046         0.593196
 H        -1.063080         2.682387        -0.125346
 H        -2.119088         1.213754        -0.566012
 H        -3.555473         2.826336         0.965221
 H        -1.517360         2.092348         4.043810
 H         0.615894         2.101641         2.002750
 H         0.278315         0.813368         3.019745
 H        -3.503097         0.870693         2.964037
 H        -1.597566        -0.824517         2.558144
 H        -2.388408        -0.564267         0.871826
