19
Iteration:  2614charge 0 multiplicity 1
 O         0.189041         0.051594         0.213713
 C        -0.756213         0.763924         1.085397
 C        -1.645602         1.706241         0.304717
 C        -2.671123         2.297722         1.258271
 O        -1.855108         3.210854         2.120558
 C        -1.518271         2.019258         2.958316
 C        -0.237167         1.460108         2.385280
 C        -2.690120         1.135057         2.345140
 C        -1.988055         0.026111         1.658320
 H        -0.166036        -0.834050         0.139510
 H        -1.077624         2.395803        -0.414385
 H        -2.181882         1.012455        -0.302252
 H        -3.491186         2.592075         0.637080
 H        -1.413065         2.145686         4.081854
 H         0.376284         2.345657         2.178238
 H         0.187531         0.654064         3.178960
 H        -3.466655         0.960372         3.034355
 H        -1.805197        -0.764708         2.430925
 H        -2.643836        -0.315871         0.863833
