19
Iteration:  3058charge 0 multiplicity 1
 O         0.021120        -0.184453         0.258783
 C        -0.794705         0.684433         1.033599
 C        -1.534088         1.822425         0.231865
 C        -2.599702         2.245839         1.271130
 O        -2.043500         3.226151         2.229970
 C        -1.502373         2.137754         2.949269
 C        -0.176329         1.641101         2.185051
 C        -2.620765         1.084776         2.435125
 C        -1.941972        -0.081356         1.727699
 H         0.964554         0.089456         0.111090
 H        -0.797321         2.612165        -0.044976
 H        -1.961045         1.337725        -0.603246
 H        -3.541998         2.549548         0.869973
 H        -1.400885         2.358351         3.995269
 H         0.029828         2.555814         1.620175
 H         0.504100         1.086218         2.922326
 H        -3.473156         0.949037         3.184454
 H        -1.699204        -1.022707         2.299488
 H        -2.661810        -0.328060         0.948297
