19
Iteration:  4004
 O         0.065211         0.026330         0.188977
 C        -0.797760         0.693364         1.082069
 C        -1.595335         1.817235         0.210720
 C        -2.589993         2.283892         1.286541
 O        -1.952661         3.175517         2.227368
 C        -1.475991         2.020624         2.984757
 C        -0.228224         1.508259         2.300810
 C        -2.634000         1.154348         2.324979
 C        -1.948187        -0.049301         1.670133
 H         0.233365        -0.829539         0.611981
 H        -1.108241         2.729217        -0.027270
 H        -2.107763         1.341054        -0.717525
 H        -3.447164         2.857888         1.023583
 H        -1.397272         2.127587         4.056585
 H         0.445317         2.310937         1.913942
 H         0.208930         0.834646         2.977205
 H        -3.486033         0.905819         2.893945
 H        -1.724765        -0.833938         2.478546
 H        -2.608831        -0.528557         0.928157
