19
Iteration:  4436charge 0 multiplicity 1
 O         0.195574         0.129909         0.179508
 C        -0.836956         0.748369         1.033191
 C        -1.675059         1.755570         0.192376
 C        -2.647471         2.194116         1.280792
 O        -1.923765         3.227957         2.108309
 C        -1.430589         2.037314         3.025994
 C        -0.228904         1.423602         2.330524
 C        -2.631121         1.145147         2.422567
 C        -2.081401        -0.096122         1.732630
 H         0.921884        -0.024333         0.797311
 H        -1.224018         2.746182        -0.143394
 H        -2.099451         1.229945        -0.647296
 H        -3.564109         2.671771         0.974189
 H        -1.324205         2.308379         4.119122
 H         0.694377         2.015600         1.901892
 H         0.281509         0.552353         3.025743
 H        -3.548969         0.986882         2.973138
 H        -1.847955        -0.982477         2.355364
 H        -2.687300        -0.439114         0.939740
