19
Iteration:  3359
 O         0.045034         0.102979         0.275996
 C        -0.833360         0.720608         1.046577
 C        -1.640546         1.715892         0.209513
 C        -2.558603         2.254442         1.247052
 O        -1.907932         3.170233         2.163311
 C        -1.496508         2.060446         2.959990
 C        -0.203820         1.511435         2.223671
 C        -2.626198         1.130225         2.370390
 C        -2.014274        -0.079637         1.776099
 H         0.785619        -0.256649         0.772170
 H        -0.909234         2.458181        -0.217374
 H        -1.978259         1.271332        -0.722126
 H        -3.536915         2.743964         0.904052
 H        -1.305439         2.218604         4.055864
 H         0.442931         2.315618         1.893986
 H         0.190911         0.790075         2.959220
 H        -3.555151         1.095423         3.020487
 H        -1.781233        -0.845399         2.488220
 H        -2.498246        -0.638373         0.938510
