19
Iteration:   711charge 0 multiplicity 1
 O         0.186259        -0.009713         0.245009
 C        -0.787060         0.705378         1.062081
 C        -1.555036         1.777785         0.263257
 C        -2.688006         2.261736         1.300282
 O        -2.010110         3.291722         2.160450
 C        -1.495332         1.992152         2.907732
 C        -0.237882         1.442853         2.382087
 C        -2.665662         1.196589         2.341161
 C        -2.007638        -0.055175         1.622257
 H         0.754465        -0.444734         0.937845
 H        -0.843400         2.612758         0.016176
 H        -1.811519         1.334898        -0.799012
 H        -3.540288         2.614412         0.730702
 H        -1.348939         2.285325         3.984138
 H         0.567248         2.219527         2.173503
 H         0.084585         0.623722         3.082611
 H        -3.493958         0.900313         2.951176
 H        -1.851234        -0.922689         2.270286
 H        -2.527405        -0.304618         0.739947
