19
Iteration:  2491charge 0 multiplicity 1
 O         0.143319         0.032706         0.226153
 C        -0.809511         0.655262         1.107479
 C        -1.610647         1.775819         0.218665
 C        -2.682247         2.243993         1.228799
 O        -1.919380         3.157199         2.099027
 C        -1.548150         2.066609         2.921273
 C        -0.231303         1.440536         2.295456
 C        -2.580284         1.217124         2.389844
 C        -2.004991        -0.054605         1.809043
 H         1.074377         0.165571         0.436770
 H        -1.096615         2.671170        -0.104076
 H        -2.192634         1.420037        -0.634555
 H        -3.667241         2.748964         0.955292
 H        -1.514065         2.300629         3.955539
 H         0.259471         2.354681         1.954528
 H         0.383726         0.688822         3.002170
 H        -3.419387         1.150004         3.100868
 H        -1.610302        -0.798940         2.512350
 H        -2.622740        -0.599094         1.090020
