19
Iteration:  3913charge 0 multiplicity 1
 O         0.112016         0.080274         0.231283
 C        -0.810927         0.701751         1.094620
 C        -1.678256         1.694159         0.253567
 C        -2.663625         2.354240         1.259776
 O        -1.869254         3.269198         2.095321
 C        -1.477461         2.004520         3.054996
 C        -0.232749         1.366511         2.375294
 C        -2.625355         1.189213         2.341905
 C        -1.941421        -0.101504         1.687705
 H         0.342552         0.791596        -0.412688
 H        -1.185196         2.616433        -0.265634
 H        -2.250875         1.074755        -0.452434
 H        -3.591485         2.669553         0.665665
 H        -1.554254         2.196705         4.113625
 H         0.554822         2.089933         2.132963
 H         0.164712         0.427428         2.934289
 H        -3.537774         0.847742         2.949889
 H        -1.543478        -0.791944         2.398300
 H        -2.548132        -0.734435         1.022861
