19
Iteration:  2221
 O         0.236660         0.050667         0.378491
 C        -0.825103         0.770530         1.027480
 C        -1.836347         1.680526         0.178121
 C        -2.744263         2.183726         1.298991
 O        -1.935527         3.158300         2.019994
 C        -1.436580         2.103786         2.910770
 C        -0.165303         1.565003         2.262628
 C        -2.581627         1.151428         2.394280
 C        -1.891282        -0.035727         1.856645
 H        -0.327129        -0.461390        -0.245680
 H        -1.401475         2.482713        -0.418824
 H        -2.367929         1.081882        -0.507658
 H        -3.629555         2.545859         0.830836
 H        -1.482111         2.424890         4.004977
 H         0.713602         2.269605         2.110557
 H         0.356576         0.815884         2.941606
 H        -3.413551         1.010197         3.068651
 H        -1.412932        -0.637508         2.657013
 H        -2.506903        -0.621013         1.160064
