19
Iteration:  3988
 O         0.126948        -0.072351         0.284567
 C        -0.789428         0.845835         0.959870
 C        -1.609579         1.843910         0.234551
 C        -2.687934         2.295258         1.285983
 O        -2.026973         3.193308         2.298851
 C        -1.511613         1.971982         2.956150
 C        -0.098601         1.412947         2.240258
 C        -2.622486         1.158646         2.365408
 C        -1.964546         0.046524         1.656027
 H        -0.061901        -0.989521         0.503518
 H        -0.868243         2.516014        -0.340270
 H        -2.043036         1.262164        -0.519782
 H        -3.646218         2.554438         0.713373
 H        -1.400571         2.231670         4.048370
 H         0.517463         2.300244         2.071488
 H         0.651165         0.627504         2.750635
 H        -3.591249         1.193609         2.971206
 H        -1.612110        -0.735040         2.286530
 H        -2.562975        -0.509836         0.929655
