19
Iteration:  1601
 O         0.275348         0.084015         0.357309
 C        -0.832793         0.660335         1.100881
 C        -1.623465         1.636117         0.230657
 C        -2.611888         2.327551         1.242315
 O        -2.051260         3.243394         2.134967
 C        -1.447023         2.082897         2.935273
 C        -0.169879         1.507950         2.290141
 C        -2.657272         1.128017         2.357995
 C        -2.101426        -0.165359         1.741877
 H        -0.016135         0.193837        -0.567948
 H        -0.871140         2.402437        -0.400736
 H        -2.313447         1.074409        -0.440911
 H        -3.274590         2.904083         0.511116
 H        -1.485195         2.345225         4.035511
 H         0.409962         2.366592         1.780596
 H         0.640533         0.996788         2.832938
 H        -3.401067         1.205482         3.188883
 H        -1.777740        -0.869098         2.535904
 H        -2.597618        -0.707847         0.992248
