19
Iteration:  3292charge 0 multiplicity 1
 O         0.056917         0.058975         0.210792
 C        -0.864057         0.729105         1.095248
 C        -1.560725         1.727234         0.207097
 C        -2.541085         2.243704         1.275079
 O        -1.984693         3.278440         2.157763
 C        -1.493042         2.070578         2.967269
 C        -0.225970         1.511449         2.230996
 C        -2.580067         1.137670         2.412779
 C        -1.945808        -0.172533         1.752222
 H         0.265976        -0.810361         0.590484
 H        -0.910004         2.654453        -0.076242
 H        -2.114178         1.497733        -0.674208
 H        -3.543665         2.599863         0.850193
 H        -1.587103         2.357653         4.014600
 H         0.251875         2.360051         1.811888
 H         0.324843         0.794978         2.854578
 H        -3.530642         1.028081         2.909150
 H        -1.558433        -0.821555         2.544297
 H        -2.650861        -0.738328         1.111611
