19
Iteration:   261charge 0 multiplicity 1
 O         0.178589         0.082307         0.340692
 C        -0.824451         0.751702         1.053326
 C        -1.613201         1.803186         0.227880
 C        -2.619383         2.256962         1.261071
 O        -1.869749         3.215370         2.172037
 C        -1.534188         1.990533         2.963745
 C        -0.264637         1.423303         2.384491
 C        -2.661215         1.148966         2.320763
 C        -2.006073        -0.079380         1.531554
 H         0.384354        -0.635281         0.964255
 H        -1.006157         2.726027         0.091711
 H        -1.981136         1.383820        -0.698039
 H        -3.505393         2.745948         0.883792
 H        -1.557103         2.297889         4.003986
 H         0.445455         2.237953         2.152465
 H         0.171998         0.521069         2.874167
 H        -3.595339         1.022007         2.895017
 H        -1.773424        -0.943656         2.161348
 H        -2.668855        -0.375177         0.676830
