19
Iteration:   898charge 0 multiplicity 1
 O         0.231400        -0.041386         0.429982
 C        -0.800225         0.794787         1.002127
 C        -1.613063         1.874260         0.260790
 C        -2.680936         2.253355         1.263572
 O        -2.005536         3.183127         2.138392
 C        -1.492810         2.029193         2.915587
 C        -0.212921         1.507913         2.269870
 C        -2.631164         1.109059         2.380565
 C        -1.990503        -0.063200         1.626071
 H        -0.132335        -0.918531         0.140346
 H        -0.917259         2.705060        -0.047386
 H        -2.056694         1.439736        -0.706903
 H        -3.678855         2.619515         0.902702
 H        -1.370002         2.394458         3.979968
 H         0.591169         2.281651         2.037632
 H         0.111793         0.596700         2.914330
 H        -3.567771         1.199508         3.000428
 H        -1.474214        -0.765555         2.356448
 H        -2.484114        -0.600243         0.833654
