19
Iteration:  3450
 O         0.142743        -0.155981         0.243178
 C        -0.800974         0.709173         1.015520
 C        -1.562229         1.815469         0.251584
 C        -2.628339         2.302796         1.310793
 O        -2.071909         3.291110         2.326861
 C        -1.489150         2.052638         2.872483
 C        -0.215694         1.525350         2.163999
 C        -2.645882         1.161280         2.322568
 C        -1.945902        -0.089862         1.699310
 H         0.577830        -0.634618         0.968277
 H        -1.032038         2.576074        -0.095319
 H        -2.124198         1.478754        -0.629450
 H        -3.535308         2.712651         0.868356
 H        -1.359253         2.295641         3.970704
 H         0.518158         2.312249         1.809811
 H         0.515968         0.956302         2.773683
 H        -3.546029         1.181876         2.964886
 H        -1.565818        -0.663359         2.560501
 H        -2.556970        -0.818430         1.174324
