19
Iteration:  3720charge 0 multiplicity 1
 O         0.061934        -0.150087         0.173700
 C        -0.807632         0.747181         1.041259
 C        -1.496648         1.798954         0.222064
 C        -2.640386         2.294641         1.341354
 O        -2.008168         3.168339         2.190779
 C        -1.510664         2.057265         2.993259
 C        -0.274383         1.634814         2.199870
 C        -2.628135         1.129742         2.415561
 C        -1.927162        -0.024696         1.759683
 H         0.727008        -0.725368         0.614196
 H        -0.880966         2.645610         0.056453
 H        -1.916944         1.456771        -0.752127
 H        -3.533527         2.664335         0.820038
 H        -1.368718         2.316446         4.053939
 H         0.282037         2.510177         1.711669
 H         0.331378         0.831985         2.817931
 H        -3.655624         0.934830         2.918813
 H        -1.408263        -0.757638         2.465772
 H        -2.450760        -0.543947         0.908771
