19
Iteration:  3330charge 0 multiplicity 1
 O         0.092259        -0.172821         0.279815
 C        -0.705182         0.752347         0.946142
 C        -1.655903         1.824132         0.248143
 C        -2.628990         2.266860         1.322447
 O        -2.043348         3.269594         2.220028
 C        -1.509179         2.072848         2.989020
 C        -0.137012         1.537838         2.183681
 C        -2.636299         1.156713         2.368713
 C        -1.994250        -0.027792         1.672359
 H         0.635598        -0.631256         0.987079
 H        -1.183608         2.645969        -0.182705
 H        -2.048438         1.248432        -0.625547
 H        -3.545550         2.548775         0.852900
 H        -1.372923         2.072547         4.095433
 H         0.633403         2.393175         2.018675
 H         0.483762         0.938399         2.942767
 H        -3.558233         1.016827         2.993395
 H        -1.662197        -0.836024         2.399013
 H        -2.395965        -0.655179         0.875919
