19
Iteration:  4247charge 0 multiplicity 1
 O         0.020963        -0.017274         0.143472
 C        -0.797933         0.727945         1.037783
 C        -1.515612         1.832193         0.321604
 C        -2.650050         2.227214         1.322931
 O        -2.047403         3.266525         2.238095
 C        -1.454794         2.102584         2.924954
 C        -0.181166         1.504830         2.296660
 C        -2.629200         1.079986         2.320770
 C        -1.950546        -0.092405         1.684366
 H         0.428005        -0.764624         0.642719
 H        -0.888097         2.745301         0.216563
 H        -1.859104         1.539459        -0.684947
 H        -3.587138         2.530718         0.915535
 H        -1.199861         2.234274         3.999771
 H         0.713040         2.239783         1.906251
 H         0.265195         0.807090         3.114671
 H        -3.630019         0.902840         2.801392
 H        -1.489899        -0.950455         2.239486
 H        -2.612983        -0.572712         0.955160
