19
Iteration:   151
 O         0.356886         0.185199         0.335824
 C        -0.871755         0.645554         1.044204
 C        -1.577011         1.802845         0.263477
 C        -2.589266         2.374942         1.241741
 O        -1.925937         3.222675         2.207253
 C        -1.518336         2.034672         2.948090
 C        -0.267246         1.353872         2.392298
 C        -2.691032         1.180498         2.277651
 C        -2.161295        -0.215919         1.596667
 H         0.292533        -0.653062        -0.140987
 H        -0.805008         2.623283        -0.053655
 H        -1.991548         1.423386        -0.666038
 H        -3.459775         2.861825         0.812613
 H        -1.558108         2.288295         3.998447
 H         0.727410         1.812088         2.238647
 H        -0.015630         0.555945         3.169890
 H        -3.595421         1.244819         2.815908
 H        -1.873971        -1.007335         2.289496
 H        -2.923664        -0.502107         0.805685
