19
Iteration:  3328charge 0 multiplicity 1
 O         0.099058        -0.178477         0.273032
 C        -0.688388         0.759966         0.959855
 C        -1.660885         1.823133         0.231484
 C        -2.618739         2.268747         1.337903
 O        -2.056666         3.261673         2.234401
 C        -1.502604         2.083950         2.963104
 C        -0.131028         1.529206         2.163587
 C        -2.644647         1.169688         2.365555
 C        -1.997934        -0.028349         1.687627
 H         0.595769        -0.633986         0.992608
 H        -1.167826         2.649457        -0.068078
 H        -2.102251         1.256602        -0.596972
 H        -3.572799         2.506983         0.796537
 H        -1.410894         2.054517         4.099668
 H         0.677241         2.326011         2.076589
 H         0.468106         0.943019         2.945799
 H        -3.611424         0.980328         2.964034
 H        -1.677210        -0.755250         2.444686
 H        -2.378556        -0.649273         0.836487
