19
Iteration:  4992charge 0 multiplicity 1
 O         0.167298         0.089715         0.228804
 C        -0.797687         0.689218         1.015264
 C        -1.609266         1.783556         0.248390
 C        -2.574987         2.246610         1.297324
 O        -2.007040         3.173409         2.239117
 C        -1.464966         2.050981         2.938944
 C        -0.251857         1.420710         2.303893
 C        -2.577020         1.242078         2.380999
 C        -1.970078        -0.043427         1.700533
 H        -0.285201        -0.563125        -0.361433
 H        -1.069941         2.626151        -0.047396
 H        -2.163305         1.290124        -0.589363
 H        -3.464276         2.392117         0.785225
 H        -1.510534         2.247800         4.019389
 H         0.552529         2.134053         1.975765
 H         0.103271         0.608098         2.948671
 H        -3.563731         1.111585         2.854376
 H        -1.740809        -0.952369         2.305884
 H        -2.889265        -0.490884         1.127440
