19
Iteration:  3374charge 0 multiplicity 1
 O         0.188956         0.111647         0.142157
 C        -0.840044         0.726828         1.094225
 C        -1.639144         1.725957         0.248877
 C        -2.682524         2.276488         1.262210
 O        -1.915492         3.252858         2.121238
 C        -1.442779         2.002654         2.929418
 C        -0.226676         1.362484         2.317102
 C        -2.697573         1.238733         2.359874
 C        -2.014779        -0.095162         1.809417
 H         0.851403        -0.329683         0.753990
 H        -1.093729         2.492244        -0.189922
 H        -2.227515         1.102450        -0.446662
 H        -3.548735         2.583637         0.731606
 H        -1.505901         2.265654         3.996799
 H         0.574674         2.152995         2.115845
 H         0.528021         0.685220         2.843931
 H        -3.631097         1.125526         2.920641
 H        -1.490293        -0.720444         2.607358
 H        -2.738143        -0.755114         1.313547
