19
Iteration:  2688
 O         0.074342        -0.024412         0.408507
 C        -0.791192         0.726327         1.099665
 C        -1.592539         1.756326         0.249796
 C        -2.562996         2.344743         1.273602
 O        -2.031056         3.176303         2.206021
 C        -1.456009         2.072394         2.911465
 C        -0.207849         1.492020         2.267319
 C        -2.568496         1.125381         2.329581
 C        -1.985158        -0.070038         1.606002
 H        -0.442391        -0.333263        -0.380539
 H        -1.115566         2.663990        -0.241131
 H        -2.118656         1.175896        -0.510877
 H        -3.474582         2.757178         0.631933
 H        -1.338104         2.353532         3.943236
 H         0.418681         2.319458         2.007479
 H         0.390104         0.956955         3.021378
 H        -3.321867         0.840006         3.012632
 H        -1.631824        -0.887585         2.275055
 H        -2.512922        -0.361276         0.694841
