19
Iteration:  4228
 O        -0.066618        -0.033839         0.189395
 C        -0.718766         0.693255         1.132782
 C        -1.539950         1.923103         0.256994
 C        -2.665481         2.293947         1.240742
 O        -2.101350         3.137830         2.232406
 C        -1.491856         1.986749         2.940551
 C        -0.099219         1.468621         2.245049
 C        -2.598592         1.170310         2.343736
 C        -1.915399        -0.038844         1.678458
 H         0.781801        -0.334681         0.598550
 H        -0.759475         2.732251        -0.071552
 H        -1.846108         1.343741        -0.586200
 H        -3.571578         2.754845         0.857480
 H        -1.494825         2.167955         4.077859
 H         0.516611         2.289334         2.053003
 H         0.506431         0.828803         2.866789
 H        -3.374612         1.150597         3.086558
 H        -1.638055        -0.760143         2.516446
 H        -2.522419        -0.523151         0.912161
