19
Iteration:  2382charge 0 multiplicity 1
 O         0.104035        -0.078094         0.219113
 C        -0.726974         0.782351         1.056294
 C        -1.675222         1.726721         0.276738
 C        -2.723225         2.184561         1.246631
 O        -1.961239         3.244464         2.141922
 C        -1.451603         2.107183         2.915608
 C        -0.225295         1.502468         2.283916
 C        -2.655767         1.160068         2.327138
 C        -1.903682        -0.001512         1.799197
 H         0.924806        -0.320129         0.700121
 H        -1.407996         2.569653        -0.326797
 H        -2.343546         1.027632        -0.320234
 H        -3.659609         2.530853         0.718018
 H        -1.174675         2.350369         3.918327
 H         0.471193         2.243277         2.126694
 H         0.182835         0.836782         3.087736
 H        -3.581254         0.975411         2.964475
 H        -1.348086        -0.544475         2.549604
 H        -2.436590        -0.589338         1.056834
