19
Iteration:  4226charge 0 multiplicity 1
 O        -0.056980        -0.036901         0.196121
 C        -0.721365         0.697451         1.121909
 C        -1.528402         1.920103         0.236481
 C        -2.670406         2.311810         1.252370
 O        -2.098527         3.137711         2.228677
 C        -1.495088         1.966769         2.941321
 C        -0.112751         1.471128         2.248046
 C        -2.604685         1.169372         2.341920
 C        -1.919876        -0.027749         1.693537
 H         0.817555        -0.321472         0.515731
 H        -0.785500         2.710481        -0.114052
 H        -1.846630         1.310512        -0.609789
 H        -3.580385         2.751420         0.936264
 H        -1.417288         2.113873         4.071935
 H         0.583277         2.384648         2.030476
 H         0.513171         0.816048         2.942087
 H        -3.458109         1.147946         3.065533
 H        -1.592757        -0.810024         2.473937
 H        -2.555588        -0.543335         0.983891
