19
Iteration:  1657
 O        -0.010627        -0.160512         0.326310
 C        -0.731163         0.772754         1.064499
 C        -1.613207         1.771574         0.196405
 C        -2.665222         2.282514         1.220624
 O        -2.081003         3.221478         2.223365
 C        -1.534755         2.135386         2.848295
 C        -0.202576         1.518555         2.289799
 C        -2.592679         1.081753         2.302887
 C        -1.756309        -0.037767         1.809220
 H         0.846632         0.304178         0.199145
 H        -0.957988         2.531827        -0.441721
 H        -2.239096         1.233699        -0.573361
 H        -3.594332         2.721705         0.724186
 H        -1.472858         2.335788         3.966069
 H         0.611687         2.253610         2.112224
 H         0.166803         0.834865         3.069810
 H        -3.581239         1.035592         2.820980
 H        -1.376237        -0.644096         2.627549
 H        -2.223132        -0.603877         1.046486
