19
Iteration:  3167charge 0 multiplicity 1
 O         0.096751        -0.095688         0.184528
 C        -0.758322         0.712675         1.019750
 C        -1.668329         1.839663         0.197155
 C        -2.576953         2.239621         1.251776
 O        -2.029615         3.263793         2.197081
 C        -1.507051         2.101361         3.000557
 C        -0.260039         1.496418         2.233259
 C        -2.572622         1.143983         2.362784
 C        -1.894289        -0.024081         1.805019
 H         0.561734        -0.759517         0.689589
 H        -1.133130         2.676453        -0.286972
 H        -2.040355         1.254428        -0.751264
 H        -3.586587         2.366988         1.058763
 H        -1.599747         2.312927         4.064561
 H         0.517527         2.337472         2.030671
 H         0.211356         0.715831         2.934293
 H        -3.554294         0.989598         2.935849
 H        -1.432217        -0.715084         2.570610
 H        -2.595766        -0.696204         1.321798
