19
Iteration:   329charge 0 multiplicity 1
 O         0.121370        -0.067344         0.263730
 C        -0.762985         0.799048         1.065059
 C        -1.497948         1.932412         0.231692
 C        -2.610909         2.311168         1.204695
 O        -2.062318         3.158969         2.221396
 C        -1.511363         2.050162         2.954976
 C        -0.187248         1.425256         2.328012
 C        -2.640461         1.120162         2.328839
 C        -2.035858        -0.106840         1.644463
 H         0.575631        -0.570245         0.944005
 H        -0.866378         2.773536         0.216180
 H        -1.723246         1.735506        -0.809197
 H        -3.515354         2.687703         0.721340
 H        -1.437127         2.242506         4.060697
 H         0.453380         2.270888         2.086483
 H         0.005160         0.673789         3.089890
 H        -3.584555         1.075748         2.991687
 H        -1.785730        -1.029976         2.225591
 H        -2.535720        -0.421463         0.739370
