19
Iteration:  4232
 O        -0.066248        -0.035189         0.173188
 C        -0.741132         0.712460         1.135056
 C        -1.547568         1.918592         0.305690
 C        -2.649951         2.256699         1.222418
 O        -2.094552         3.153322         2.248892
 C        -1.477751         2.037426         2.941662
 C        -0.095496         1.455314         2.254538
 C        -2.585229         1.156877         2.331004
 C        -1.915450        -0.062883         1.669129
 H         0.674546        -0.375285         0.699471
 H        -0.863414         2.683958         0.078624
 H        -1.899618         1.404572        -0.633444
 H        -3.565346         2.715801         0.695255
 H        -1.600409         2.252902         3.968066
 H         0.530208         2.328673         1.973685
 H         0.522782         0.770448         2.850872
 H        -3.341305         1.089366         3.122570
 H        -1.729015        -0.673453         2.517640
 H        -2.443260        -0.501936         0.781495
