19
Iteration:  1984charge 0 multiplicity 1
 O         0.018633         0.000602         0.313134
 C        -0.758042         0.749334         1.085720
 C        -1.710674         1.666154         0.269609
 C        -2.715167         2.172102         1.275595
 O        -1.888190         3.174295         1.993773
 C        -1.469109         2.136761         2.873346
 C        -0.264587         1.596245         2.302080
 C        -2.630699         1.091103         2.417106
 C        -1.859179        -0.084079         1.781494
 H         0.889023         0.408625         0.148693
 H        -1.183127         2.621314        -0.116301
 H        -2.021863         1.095882        -0.597797
 H        -3.666281         2.628259         0.912567
 H        -1.224790         2.572579         3.855704
 H         0.310563         2.598414         2.116928
 H         0.513059         0.964602         2.924737
 H        -3.359358         0.921676         3.120233
 H        -1.380210        -0.591563         2.639375
 H        -2.509445        -0.675731         1.145057
