19
Iteration:  2298charge 0 multiplicity 1
 O        -0.008162        -0.147474         0.364835
 C        -0.764484         0.762565         1.057950
 C        -1.678980         1.770828         0.171658
 C        -2.616821         2.209768         1.241871
 O        -2.085786         3.189274         2.145858
 C        -1.485084         2.144612         2.913811
 C        -0.196624         1.600052         2.234111
 C        -2.523824         1.131190         2.353230
 C        -1.821448        -0.064874         1.832464
 H         0.600533         0.352219        -0.232028
 H        -1.080980         2.650726        -0.242373
 H        -2.278626         1.401156        -0.649522
 H        -3.617383         2.316461         0.937923
 H        -1.394182         2.478222         4.024842
 H         0.621158         2.415731         1.980151
 H         0.221377         0.790560         2.908036
 H        -3.415205         1.096143         2.887910
 H        -1.276543        -0.766308         2.537761
 H        -2.266168        -0.777399         1.143194
