19
Iteration:  1080charge 0 multiplicity 1
 O         0.219891         0.071392         0.408215
 C        -0.794272         0.752123         1.113396
 C        -1.702128         1.734321         0.212596
 C        -2.685171         2.247413         1.200552
 O        -1.926116         3.186054         2.050255
 C        -1.505119         2.078086         2.932003
 C        -0.232247         1.375230         2.360495
 C        -2.654039         1.157959         2.413641
 C        -1.951798        -0.048055         1.650040
 H         0.189767         0.173685        -0.550000
 H        -1.126773         2.612003        -0.059329
 H        -2.163309         1.202614        -0.608340
 H        -3.480185         2.894454         0.868934
 H        -1.440403         2.417166         3.942861
 H         0.556971         2.172842         2.323085
 H         0.157766         0.436280         3.006169
 H        -3.373050         1.054277         3.159815
 H        -1.600930        -0.831043         2.359064
 H        -2.546936        -0.534604         0.757575
