19
Iteration:  1257charge 0 multiplicity 1
 O         0.159638        -0.103942         0.398928
 C        -0.723973         0.713746         1.130431
 C        -1.531221         1.814576         0.282322
 C        -2.671440         2.233217         1.238379
 O        -2.082924         3.220446         2.194035
 C        -1.493377         2.097718         2.897710
 C        -0.165717         1.537480         2.212845
 C        -2.647159         1.161846         2.317139
 C        -1.985415        -0.080803         1.686868
 H         0.071927         0.097444        -0.540896
 H        -0.996495         2.656874        -0.052544
 H        -1.815121         1.462643        -0.684048
 H        -3.602197         2.486474         0.797664
 H        -1.553898         2.211877         3.990651
 H         0.585428         2.267277         1.880914
 H         0.284913         0.824562         3.040947
 H        -3.642407         1.210581         2.862887
 H        -1.731335        -0.963131         2.273601
 H        -2.634345        -0.572967         0.890342
