19
Iteration:  1835
 O         0.110424         0.061543         0.330336
 C        -0.862290         0.701640         1.114194
 C        -1.663163         1.683227         0.159196
 C        -2.663291         2.204335         1.228210
 O        -1.906493         3.160284         2.070084
 C        -1.484245         2.037430         2.939953
 C        -0.179228         1.565306         2.269577
 C        -2.618656         1.199835         2.392220
 C        -1.954788        -0.076138         1.818417
 H         0.612007         0.842431         0.037378
 H        -1.059992         2.436926        -0.263926
 H        -2.171595         0.965724        -0.581051
 H        -3.601406         2.539767         0.755206
 H        -1.410227         2.213011         3.993023
 H         0.345203         2.338106         1.822168
 H         0.414800         1.029885         2.990860
 H        -3.538293         1.004736         2.930481
 H        -1.577322        -0.628809         2.640544
 H        -2.595171        -0.799844         1.331330
