19
Iteration:    68
 O         0.210912        -0.094870         0.403353
 C        -0.829490         0.675444         1.060408
 C        -1.422646         1.872535         0.220811
 C        -2.536991         2.356104         1.246574
 O        -2.061008         3.192100         2.313165
 C        -1.515400         1.997950         3.009407
 C        -0.183889         1.462297         2.354615
 C        -2.693253         1.123413         2.207869
 C        -2.161347        -0.059776         1.515426
 H         0.644296         0.384680        -0.367909
 H        -0.746153         2.638586         0.119145
 H        -1.850776         1.657703        -0.794004
 H        -3.420530         2.726282         0.725564
 H        -1.536727         2.243747         4.084560
 H         0.429254         2.309152         2.076658
 H         0.270980         0.680093         2.972045
 H        -3.607448         1.226571         2.795202
 H        -2.124946        -1.030213         2.029181
 H        -2.767158        -0.255462         0.652201
