19
Iteration:  2973
 O         0.168543         0.126095         0.264410
 C        -0.803898         0.766417         1.121854
 C        -1.638652         1.763252         0.242603
 C        -2.608984         2.257981         1.232461
 O        -1.987019         3.188028         2.111421
 C        -1.444365         2.030311         2.951528
 C        -0.173673         1.446935         2.279240
 C        -2.619092         1.168017         2.390966
 C        -2.076826        -0.129392         1.758544
 H        -0.071550        -0.746154        -0.038926
 H        -1.091591         2.573706        -0.449936
 H        -2.120867         1.054697        -0.441081
 H        -3.614235         2.637460         0.759723
 H        -1.236263         2.367833         3.977049
 H         0.564995         2.148425         2.037106
 H         0.450690         0.805173         2.907600
 H        -3.389323         1.214211         3.191047
 H        -1.845674        -0.895642         2.557942
 H        -2.589513        -0.538476         0.885317
