19
Iteration:  3967
 O         0.155650        -0.093604         0.358044
 C        -0.811765         0.735982         1.000433
 C        -1.655009         1.843231         0.195382
 C        -2.604218         2.366881         1.351694
 O        -2.025417         3.210563         2.319817
 C        -1.431390         2.058327         2.907576
 C        -0.253350         1.496429         2.222716
 C        -2.567863         1.110396         2.280144
 C        -1.953936        -0.064901         1.647446
 H        -0.242098        -0.901617        -0.021564
 H        -1.079912         2.827450        -0.075988
 H        -2.178538         1.559065        -0.679463
 H        -3.617704         2.666608         0.903629
 H        -1.426713         2.163998         3.995852
 H         0.590770         2.118302         1.873340
 H         0.343888         0.915060         3.052520
 H        -3.498951         0.893252         2.913419
 H        -1.521496        -0.838727         2.193822
 H        -2.546532        -0.545999         0.866495
