19
Iteration:  2102
 O         0.213485         0.118827         0.182228
 C        -0.822506         0.655821         1.055461
 C        -1.672479         1.547311         0.285113
 C        -2.707116         2.232799         1.275855
 O        -2.031553         3.229170         2.114382
 C        -1.437257         2.199473         2.838634
 C        -0.223907         1.566777         2.235434
 C        -2.617070         1.212974         2.390104
 C        -1.914984        -0.146348         1.895729
 H         0.490460        -0.762956         0.465841
 H        -1.108992         2.192224        -0.511776
 H        -2.471799         1.002351        -0.234366
 H        -3.715666         2.501379         1.055839
 H        -1.291262         2.517364         3.935378
 H         0.581639         2.353660         1.943416
 H         0.283975         1.032099         2.967851
 H        -3.446258         1.086181         3.067883
 H        -1.397821        -0.657330         2.718421
 H        -2.518643        -0.767763         1.245178
