19
Iteration:   826
 O         0.143856         0.012681         0.252704
 C        -0.846914         0.769377         1.067873
 C        -1.551217         1.804342         0.246559
 C        -2.722312         2.285105         1.254077
 O        -1.890761         3.182282         2.107712
 C        -1.541736         2.018392         2.878909
 C        -0.242176         1.426067         2.388573
 C        -2.710898         1.209962         2.324182
 C        -1.915012        -0.133441         1.729705
 H         1.050138         0.222865         0.564346
 H        -0.969043         2.755668        -0.034760
 H        -2.037257         1.223802        -0.684471
 H        -3.612861         2.785029         0.813633
 H        -1.621096         2.198092         3.960075
 H         0.501362         2.194224         2.298788
 H         0.022615         0.649579         3.091026
 H        -3.453363         1.157388         3.135131
 H        -1.526625        -0.745860         2.570180
 H        -2.469786        -0.837090         0.957062
