19
Iteration:  4090charge 0 multiplicity 1
 O         0.105633        -0.143603         0.344192
 C        -0.859886         0.762537         1.011437
 C        -1.573342         1.841518         0.223738
 C        -2.615630         2.293736         1.335447
 O        -1.959366         3.185568         2.309649
 C        -1.483110         2.004551         2.945900
 C        -0.200880         1.576033         2.216122
 C        -2.651754         1.135692         2.306859
 C        -2.023081        -0.102761         1.626978
 H         0.703241         0.371812        -0.236868
 H        -0.952240         2.668356        -0.038060
 H        -1.946731         1.324788        -0.687210
 H        -3.545873         2.857874         1.053799
 H        -1.345236         2.064014         3.985984
 H         0.497261         2.450311         1.935045
 H         0.450882         0.816708         2.792098
 H        -3.541500         1.152787         2.875601
 H        -1.540547        -0.838205         2.196110
 H        -2.660161        -0.403142         0.798903
