19
Iteration:  3594
 O         0.031852        -0.119083         0.190676
 C        -0.813541         0.783236         1.004983
 C        -1.563431         1.825572         0.175288
 C        -2.598400         2.252704         1.225894
 O        -2.074865         3.179747         2.260059
 C        -1.502915         2.099497         2.958405
 C        -0.164349         1.519310         2.272688
 C        -2.634074         1.156871         2.439797
 C        -1.928875        -0.022857         1.745479
 H         0.742572        -0.559392         0.712042
 H        -0.887703         2.652769        -0.251326
 H        -1.810069         1.402419        -0.830463
 H        -3.555745         2.610057         0.777924
 H        -1.206981         2.218649         4.044448
 H         0.594730         2.274055         1.928398
 H         0.273687         0.789300         3.007111
 H        -3.483551         0.912417         3.119974
 H        -1.356070        -0.752077         2.458210
 H        -2.595458        -0.607385         1.073507
