19
Iteration:   655charge 0 multiplicity 1
 O         0.199252        -0.040012         0.326586
 C        -0.749706         0.746743         1.089670
 C        -1.623987         1.778928         0.230758
 C        -2.568279         2.343070         1.260010
 O        -1.906327         3.173796         2.242221
 C        -1.601407         2.001089         2.960703
 C        -0.256579         1.469700         2.395297
 C        -2.694240         1.174482         2.243955
 C        -1.988214        -0.052150         1.625145
 H         0.118623         0.220804        -0.593891
 H        -1.121821         2.616204        -0.388494
 H        -2.116582         0.964687        -0.334137
 H        -3.328671         2.821455         0.701238
 H        -1.667086         2.314424         4.015304
 H         0.469332         2.282601         2.103606
 H         0.317333         0.735141         3.031815
 H        -3.670988         1.027502         2.699851
 H        -1.775033        -0.851874         2.306003
 H        -2.543479        -0.533926         0.826861
