19
Iteration:  2154charge 0 multiplicity 1
 O         0.102929        -0.198036         0.323914
 C        -0.767071         0.761741         1.054329
 C        -1.751285         1.716616         0.233944
 C        -2.740524         2.219614         1.289138
 O        -2.091554         3.265245         2.106807
 C        -1.448059         2.171600         2.859315
 C        -0.195914         1.631886         2.159530
 C        -2.583539         1.110735         2.407980
 C        -1.763588        -0.042617         1.819572
 H         1.013931        -0.166338         0.639921
 H        -1.364051         2.620674        -0.163575
 H        -2.260149         1.312603        -0.610810
 H        -3.703080         2.659362         1.046369
 H        -1.340667         2.320510         3.964989
 H         0.612644         2.308115         1.763713
 H         0.412601         0.925238         2.884557
 H        -3.333095         0.758019         3.228849
 H        -1.288033        -0.765310         2.524595
 H        -2.369022        -0.602605         1.063727
