19
Iteration:  2256
 O         0.213217         0.025339         0.254828
 C        -0.876859         0.649332         1.037644
 C        -1.728834         1.682912         0.239935
 C        -2.637026         2.184067         1.307969
 O        -2.043040         3.258385         2.107150
 C        -1.457161         2.160775         2.914863
 C        -0.187504         1.634540         2.197352
 C        -2.542135         1.152573         2.393449
 C        -1.929344        -0.120215         1.816502
 H         0.561535        -0.779601         0.719391
 H        -1.031233         2.401160        -0.281855
 H        -2.381566         1.241363        -0.422069
 H        -3.557052         2.551970         0.904585
 H        -1.433955         2.327090         4.027113
 H         0.486635         2.466093         1.688633
 H         0.275267         0.878544         2.845462
 H        -3.311057         0.975888         3.047455
 H        -1.832032        -0.754706         2.704520
 H        -2.618703        -0.686204         1.200453
