19
Iteration:  3020
 O         0.151389        -0.003442         0.419240
 C        -0.862086         0.753440         1.038032
 C        -1.723735         1.784133         0.179635
 C        -2.701435         2.350053         1.270772
 O        -1.915051         3.240392         2.185969
 C        -1.476634         2.071732         2.842207
 C        -0.204296         1.410205         2.282983
 C        -2.589088         1.122697         2.337329
 C        -1.897792        -0.165837         1.773069
 H         0.176781         0.289586        -0.528230
 H        -1.235384         2.599902        -0.406439
 H        -2.382765         1.138237        -0.517573
 H        -3.647720         2.894842         0.904106
 H        -1.333250         2.341400         3.941552
 H         0.677024         2.013271         2.090050
 H         0.263497         0.837780         3.018435
 H        -3.518934         0.944118         2.845449
 H        -1.211706        -0.765762         2.383204
 H        -2.533547        -0.720049         1.031067
