19
Iteration:   181
 O         0.197723        -0.033551         0.445691
 C        -0.821586         0.826843         1.003029
 C        -1.576317         1.849890         0.237066
 C        -2.602306         2.313514         1.248761
 O        -1.928478         3.167395         2.170422
 C        -1.565743         1.935051         3.048542
 C        -0.226703         1.390635         2.353588
 C        -2.745054         1.171162         2.276319
 C        -1.958641         0.004861         1.595528
 H         0.287926         0.031071        -0.513370
 H        -0.975617         2.683504        -0.212822
 H        -1.956836         1.342799        -0.621903
 H        -3.505661         2.799410         0.783552
 H        -1.661070         2.296124         4.078617
 H         0.729866         1.961391         2.147056
 H         0.158355         0.433226         2.852359
 H        -3.761271         1.096046         2.662973
 H        -1.576718        -0.860522         2.164673
 H        -2.515403        -0.545604         0.784992
