19
Iteration:  2548charge 0 multiplicity 1
 O         0.229762        -0.192573         0.320389
 C        -0.728927         0.756539         1.008227
 C        -1.619312         1.751284         0.169394
 C        -2.632213         2.263845         1.245337
 O        -2.009671         3.241744         2.235750
 C        -1.471254         1.999717         3.009938
 C        -0.180072         1.626265         2.293982
 C        -2.673825         1.192976         2.338949
 C        -2.053507        -0.028548         1.699351
 H        -0.286751        -0.493841        -0.476476
 H        -1.048731         2.699571        -0.183125
 H        -2.277853         1.365321        -0.609110
 H        -3.559612         2.671789         0.881470
 H        -1.451072         2.316306         4.085737
 H         0.377249         2.545493         2.130857
 H         0.463643         0.871813         3.032211
 H        -3.513290         0.966685         2.894477
 H        -1.735230        -0.786854         2.447888
 H        -2.599916        -0.410364         0.846240
