19
Iteration:  3739charge 0 multiplicity 1
 O         0.045699        -0.001808         0.276956
 C        -0.811278         0.759264         1.043604
 C        -1.664349         1.773001         0.244604
 C        -2.651164         2.264388         1.239148
 O        -1.957160         3.271478         2.219033
 C        -1.484745         2.041257         2.916363
 C        -0.133551         1.479858         2.248665
 C        -2.595072         1.098448         2.300758
 C        -1.916289        -0.101677         1.726167
 H         0.363975        -0.657907         0.919113
 H        -1.125757         2.640101        -0.276103
 H        -2.237956         1.327139        -0.560768
 H        -3.632030         2.712794         0.993470
 H        -1.507031         2.268710         3.951218
 H         0.413737         2.359066         1.998330
 H         0.330859         0.901271         3.018255
 H        -3.422324         1.092379         2.994698
 H        -1.427683        -0.750387         2.539994
 H        -2.522479        -0.697598         0.973330
