19
Iteration:  2601
 O         0.263613         0.050592         0.203702
 C        -0.805369         0.729072         1.072056
 C        -1.629597         1.750845         0.200619
 C        -2.646647         2.307636         1.248328
 O        -1.915288         3.142803         2.140285
 C        -1.540285         2.097038         2.971246
 C        -0.260239         1.371780         2.333914
 C        -2.705293         1.224349         2.431436
 C        -1.978061        -0.010528         1.740710
 H         0.030303        -0.903188         0.061977
 H        -1.091438         2.608290        -0.278006
 H        -2.122739         1.223111        -0.573159
 H        -3.581411         2.897344         1.085348
 H        -1.465932         2.547814         3.938058
 H         0.598820         1.961720         2.178481
 H         0.190217         0.600723         3.070702
 H        -3.628490         0.931902         2.788875
 H        -1.524652        -0.813306         2.358122
 H        -2.612470        -0.502872         1.009335
