19
Iteration:   727charge 0 multiplicity 1
 O         0.097930        -0.047405         0.240826
 C        -0.719027         0.714463         1.097644
 C        -1.476131         1.817575         0.248313
 C        -2.564190         2.268193         1.218763
 O        -2.097345         3.201254         2.211498
 C        -1.535508         2.164113         3.004298
 C        -0.224833         1.486859         2.370832
 C        -2.610678         1.103969         2.335144
 C        -1.980332        -0.044968         1.575208
 H         0.058177        -0.985740         0.471295
 H        -0.855824         2.654343        -0.078528
 H        -1.984779         1.223051        -0.487073
 H        -3.557560         2.584647         0.806119
 H        -1.647101         2.366336         4.068797
 H         0.489336         2.217954         2.073856
 H         0.287658         0.791497         3.044169
 H        -3.591060         1.160091         2.859200
 H        -1.604859        -0.913205         2.177671
 H        -2.701308        -0.396498         0.749409
