19
Iteration:  2638charge 0 multiplicity 1
 O         0.116581         0.049121         0.352057
 C        -0.912276         0.717663         1.066877
 C        -1.597179         1.850014         0.158293
 C        -2.603803         2.360141         1.208484
 O        -1.930554         3.160727         2.225421
 C        -1.499694         2.068286         2.981475
 C        -0.186002         1.469184         2.264641
 C        -2.631152         1.120362         2.294065
 C        -1.955702        -0.127920         1.744297
 H        -0.112530        -0.888426         0.249679
 H        -0.791698         2.524572        -0.204757
 H        -2.048929         1.346861        -0.725616
 H        -3.550924         2.604940         0.833690
 H        -1.350754         2.330026         4.092083
 H         0.481441         2.265080         1.783552
 H         0.264925         0.737691         3.047014
 H        -3.654337         0.995207         2.757295
 H        -1.452547        -0.811295         2.459510
 H        -2.557342        -0.665794         0.979596
