19
Iteration:  4948charge 0 multiplicity 1
 O         0.211102         0.045236         0.361694
 C        -0.918660         0.761841         1.046799
 C        -1.765686         1.756495         0.211082
 C        -2.614413         2.291096         1.303662
 O        -1.791265         3.154289         2.155276
 C        -1.514131         2.006015         2.989442
 C        -0.219016         1.473944         2.266220
 C        -2.640975         1.134991         2.352794
 C        -1.967913        -0.043795         1.658071
 H         0.105735         0.130404        -0.611046
 H        -1.186670         2.554314        -0.215939
 H        -2.376894         1.246818        -0.622368
 H        -3.546400         2.677954         0.927601
 H        -1.530675         1.998693         4.091507
 H         0.226266         2.501546         2.114214
 H         0.323273         0.783819         2.934080
 H        -3.435215         1.101684         3.124987
 H        -1.561002        -0.810791         2.391280
 H        -2.464038        -0.662472         0.788169
