19
Iteration:   138
 O         0.260731         0.202534         0.254005
 C        -0.834970         0.679871         1.135766
 C        -1.484671         1.723994         0.306667
 C        -2.518094         2.301146         1.249134
 O        -1.910626         3.236915         2.180170
 C        -1.607133         2.037726         3.039033
 C        -0.277024         1.309651         2.331557
 C        -2.767363         1.189953         2.286602
 C        -2.066962        -0.061135         1.574879
 H         0.112046        -0.779251         0.302209
 H        -0.725895         2.500900        -0.069820
 H        -2.013748         1.318727        -0.521830
 H        -3.392058         2.768795         0.729406
 H        -1.552417         2.168753         4.136188
 H         0.363373         2.177841         1.996513
 H         0.259832         0.437707         2.922509
 H        -3.745622         0.938096         2.691028
 H        -2.020382        -0.956587         2.234180
 H        -2.631683        -0.485600         0.677554
