19
Iteration:  2529charge 0 multiplicity 1
 O         0.101695        -0.157749         0.368814
 C        -0.791493         0.750933         1.015066
 C        -1.610266         1.777575         0.191778
 C        -2.595774         2.318260         1.275861
 O        -2.020808         3.221998         2.231718
 C        -1.532673         2.104582         2.941497
 C        -0.259227         1.490004         2.299240
 C        -2.575429         1.169014         2.334895
 C        -1.870587        -0.053071         1.689100
 H         0.101952         0.111395        -0.572764
 H        -0.956770         2.499184        -0.401341
 H        -2.171488         1.174740        -0.581825
 H        -3.513396         2.631335         0.829292
 H        -1.596007         2.293759         4.078066
 H         0.503418         2.204701         1.918087
 H         0.306429         0.976035         2.976956
 H        -3.483965         1.078028         2.981932
 H        -1.532264        -0.851486         2.372972
 H        -2.553362        -0.554132         0.955532
