19
Iteration:  4633
 O         0.062427        -0.024622         0.327100
 C        -0.812793         0.777104         1.016487
 C        -1.568750         1.813954         0.171609
 C        -2.644809         2.319532         1.302738
 O        -2.077371         3.210296         2.284723
 C        -1.450500         2.066937         2.948403
 C        -0.160786         1.485754         2.183339
 C        -2.509308         1.073482         2.396056
 C        -1.997093        -0.065724         1.603609
 H         0.260335        -0.804964         0.900543
 H        -1.255470         2.709683        -0.255500
 H        -2.338917         1.374691        -0.461354
 H        -3.530488         2.622213         0.747230
 H        -1.271698         2.195160         4.070285
 H         0.691208         2.224881         2.019369
 H         0.344110         0.765322         2.757496
 H        -3.506559         0.925326         2.917482
 H        -1.360059        -0.685168         2.314558
 H        -2.496006        -0.663139         0.859424
