19
Iteration:  3980
 O         0.147059        -0.093988         0.328124
 C        -0.762632         0.784454         0.994463
 C        -1.614789         1.903270         0.203278
 C        -2.662915         2.286262         1.283465
 O        -2.066548         3.244204         2.298826
 C        -1.446623         1.963418         2.969372
 C        -0.128477         1.482911         2.194910
 C        -2.645759         1.159883         2.362504
 C        -1.933075        -0.057195         1.612335
 H        -0.338648        -0.927673         0.430456
 H        -1.009685         2.703214        -0.333631
 H        -2.180621         1.247910        -0.523578
 H        -3.571431         2.851440         0.926461
 H        -1.170615         2.084898         3.974292
 H         0.569043         2.365585         2.144664
 H         0.152451         0.508913         2.709937
 H        -3.527125         1.077672         3.051897
 H        -1.740273        -0.772830         2.416616
 H        -2.563275        -0.531504         0.855111
