19
Iteration:  3777charge 0 multiplicity 1
 O         0.227008         0.158083         0.169714
 C        -0.831641         0.729442         1.048518
 C        -1.696970         1.690632         0.245017
 C        -2.603569         2.241034         1.328687
 O        -1.815300         3.251360         2.104663
 C        -1.528877         2.104151         2.906695
 C        -0.325242         1.446274         2.324205
 C        -2.598304         1.130600         2.439611
 C        -2.091541        -0.115535         1.785194
 H         0.586906        -0.685376         0.471603
 H        -1.217670         2.529622        -0.179664
 H        -2.229086         1.115515        -0.552766
 H        -3.509114         2.528636         0.827759
 H        -1.474331         2.298510         4.028807
 H         0.526740         2.134449         1.978103
 H         0.270186         0.615756         2.887239
 H        -3.573085         1.004850         2.931920
 H        -1.586596        -0.882537         2.351388
 H        -2.689280        -0.634616         1.051548
