19
Iteration:   391charge 0 multiplicity 1
 O         0.186449         0.015985         0.344673
 C        -0.836807         0.748195         1.080074
 C        -1.542992         1.874485         0.151067
 C        -2.581681         2.361601         1.242848
 O        -1.923988         3.182213         2.239236
 C        -1.572874         1.931331         2.984479
 C        -0.353153         1.280406         2.284432
 C        -2.707264         1.173015         2.185335
 C        -1.965496        -0.024244         1.753645
 H         0.907761         0.571745         0.021175
 H        -0.704663         2.643523        -0.169984
 H        -2.050290         1.421235        -0.721804
 H        -3.527644         2.854876         0.941817
 H        -1.530122         2.089779         4.060387
 H         0.378144         2.158714         2.269256
 H         0.289870         0.574008         2.881240
 H        -3.730135         1.071075         2.641876
 H        -1.481627        -0.610504         2.568679
 H        -2.458385        -0.804825         1.109295
