19
Iteration:   110charge 0 multiplicity 1
 O         0.061552        -0.094405         0.238724
 C        -0.789780         0.808665         1.077859
 C        -1.508447         1.946466         0.185089
 C        -2.555564         2.373141         1.191113
 O        -1.960235         3.141037         2.258375
 C        -1.608725         1.957301         3.017252
 C        -0.177878         1.491654         2.479934
 C        -2.692415         1.156644         2.163201
 C        -1.974020        -0.106666         1.618662
 H         0.609340        -0.435028         0.968097
 H        -0.782298         2.713113        -0.164588
 H        -1.994127         1.619729        -0.790382
 H        -3.402881         2.915481         0.840527
 H        -1.792497         1.925904         4.089479
 H         0.583273         2.239643         2.461154
 H         0.122538         0.651371         3.017027
 H        -3.623205         0.989476         2.673171
 H        -1.730063        -0.817719         2.403681
 H        -2.359245        -0.791806         0.871296
