19
Iteration:  4641
 O         0.112892        -0.040546         0.257294
 C        -0.809394         0.784043         0.969587
 C        -1.607895         1.811308         0.252164
 C        -2.634701         2.285068         1.339693
 O        -2.068925         3.204312         2.276207
 C        -1.393732         2.066536         2.947567
 C        -0.189229         1.508655         2.241981
 C        -2.590132         1.107599         2.307093
 C        -1.974774        -0.051232         1.671936
 H         0.167436        -0.876654         0.765558
 H        -0.894254         2.504372        -0.305199
 H        -2.187917         1.306728        -0.536853
 H        -3.546575         2.651328         0.940577
 H        -1.327340         2.371546         4.021973
 H         0.390586         2.418107         1.862311
 H         0.294572         0.735813         2.891279
 H        -3.459477         0.831856         2.865710
 H        -1.613328        -0.802153         2.389451
 H        -2.557237        -0.617028         0.933626
