19
Iteration:  3609
 O         0.108139        -0.018091         0.166119
 C        -0.775611         0.689924         1.022149
 C        -1.590816         1.755714         0.209694
 C        -2.669730         2.301128         1.349627
 O        -2.019925         3.273140         2.204185
 C        -1.441251         2.090411         2.916058
 C        -0.251150         1.481047         2.274992
 C        -2.573922         1.144015         2.330322
 C        -1.950402        -0.111873         1.759578
 H         0.697977        -0.510934         0.751562
 H        -1.026463         2.626261        -0.113675
 H        -2.295588         1.291919        -0.390187
 H        -3.630393         2.696442         0.962309
 H        -1.469037         2.404294         3.898172
 H         0.577450         2.164812         2.201731
 H         0.175077         0.708368         3.033819
 H        -3.506037         1.122344         2.841387
 H        -1.713379        -0.820369         2.608555
 H        -2.613650        -0.682393         1.047589
