19
Iteration:  1780charge 0 multiplicity 1
 O         0.222306        -0.070188         0.401435
 C        -0.850434         0.719411         1.036728
 C        -1.574384         1.769692         0.224600
 C        -2.698905         2.268886         1.230197
 O        -2.141350         3.256103         2.205489
 C        -1.419592         2.097735         2.844955
 C        -0.149733         1.591239         2.158359
 C        -2.621990         1.143441         2.359780
 C        -1.932570        -0.156575         1.865752
 H        -0.234714        -0.498608        -0.365224
 H        -0.837991         2.525358         0.002832
 H        -1.927358         1.422447        -0.850753
 H        -3.655951         2.568095         0.759265
 H        -1.177131         2.256807         3.872908
 H         0.520778         2.320310         1.836387
 H         0.258252         0.872970         2.880428
 H        -3.516721         1.081969         2.956638
 H        -1.562889        -0.885051         2.530528
 H        -2.617941        -0.560724         1.154967
