19
Iteration:  2443charge 0 multiplicity 1
 O         0.230128        -0.052384         0.374765
 C        -0.807123         0.744570         1.011480
 C        -1.702615         1.759620         0.202310
 C        -2.716486         2.337955         1.244597
 O        -2.007476         3.214394         2.151025
 C        -1.457570         1.991954         2.938501
 C        -0.160705         1.504426         2.241627
 C        -2.622865         1.173973         2.340051
 C        -1.895360        -0.040392         1.817127
 H        -0.309756        -0.705954        -0.162884
 H        -1.058719         2.576501        -0.177505
 H        -2.198910         1.314664        -0.685407
 H        -3.653453         2.784070         0.812036
 H        -1.401238         2.267305         4.020409
 H         0.405881         2.447241         1.824408
 H         0.338985         0.843062         2.970275
 H        -3.545059         0.944283         2.981974
 H        -1.599771        -0.881602         2.475415
 H        -2.607093        -0.562658         1.109555
