19
Iteration:  2654
 O         0.224013        -0.058933         0.336534
 C        -0.806146         0.731339         0.942695
 C        -1.524508         1.826304         0.231226
 C        -2.588396         2.291457         1.288092
 O        -2.038578         3.231679         2.239628
 C        -1.504432         1.988317         2.901160
 C        -0.295012         1.439741         2.171977
 C        -2.657595         1.193792         2.383669
 C        -1.978598        -0.007836         1.759258
 H        -0.172935        -0.955154         0.201794
 H        -0.971060         2.753322         0.046388
 H        -2.027465         1.559193        -0.730286
 H        -3.457257         2.897861         0.785874
 H        -1.363043         2.149354         3.922688
 H         0.314427         2.300851         1.988019
 H         0.121733         0.645525         2.714785
 H        -3.483012         1.013778         3.058944
 H        -1.513606        -0.628881         2.545389
 H        -2.581905        -0.772195         1.236658
