19
Iteration:   884
 O         0.213763        -0.081178         0.362149
 C        -0.770267         0.720802         1.101967
 C        -1.577299         1.785480         0.232381
 C        -2.660434         2.268378         1.300263
 O        -2.065475         3.233329         2.223571
 C        -1.486908         2.087316         2.934500
 C        -0.178861         1.532116         2.238134
 C        -2.639619         1.143124         2.291141
 C        -1.950348        -0.052426         1.606095
 H        -0.122087        -0.964127         0.574093
 H        -1.092028         2.801070        -0.105275
 H        -2.112608         1.347574        -0.745243
 H        -3.567038         2.637113         0.868802
 H        -1.507577         2.194175         4.038505
 H         0.408149         2.453580         1.908433
 H         0.477762         0.987184         2.959814
 H        -3.484723         0.804800         2.879017
 H        -1.927543        -0.992815         2.200161
 H        -2.700577        -0.236293         0.725586
