19
Iteration:  4613
 O         0.115937        -0.068346         0.277395
 C        -0.819136         0.802690         0.970235
 C        -1.663628         1.841487         0.179993
 C        -2.670090         2.256291         1.323612
 O        -1.997214         3.179480         2.268901
 C        -1.415579         2.033635         2.935236
 C        -0.228053         1.498861         2.231095
 C        -2.588711         1.133950         2.346760
 C        -1.935413        -0.029627         1.705277
 H         0.622444        -0.448901         1.020324
 H        -0.952563         2.550896        -0.120224
 H        -2.103158         1.392751        -0.756570
 H        -3.697974         2.662172         0.986103
 H        -1.327654         2.243217         4.002110
 H         0.433537         2.317360         2.009502
 H         0.247277         0.736920         2.868073
 H        -3.520589         0.922658         2.982299
 H        -1.606147        -0.977003         2.224945
 H        -2.576430        -0.342269         0.859369
