19
Iteration:  2266charge 0 multiplicity 1
 O         0.135372        -0.059159         0.205610
 C        -0.719703         0.661926         1.106743
 C        -1.690944         1.715135         0.235743
 C        -2.693417         2.224110         1.265695
 O        -2.035071         3.200242         2.134631
 C        -1.462218         2.134810         2.879352
 C        -0.193088         1.646837         2.186830
 C        -2.626052         1.171823         2.411309
 C        -1.948156        -0.129868         1.850911
 H         0.856802        -0.437240         0.768369
 H        -1.106549         2.624168        -0.111411
 H        -2.211771         1.320422        -0.584525
 H        -3.692676         2.450743         1.010117
 H        -1.358942         2.423127         3.984122
 H         0.451359         2.564265         1.772836
 H         0.601708         1.202301         2.862932
 H        -3.472320         1.174915         3.011990
 H        -1.585287        -0.810861         2.670334
 H        -2.516664        -0.588703         1.049955
