19
Iteration:  2547charge 0 multiplicity 1
 O         0.229853        -0.200437         0.316167
 C        -0.731633         0.751697         1.014367
 C        -1.616453         1.758576         0.163946
 C        -2.629301         2.259108         1.245723
 O        -2.010461         3.246667         2.235860
 C        -1.477313         1.998475         3.008773
 C        -0.180302         1.634150         2.299673
 C        -2.659526         1.190639         2.340264
 C        -2.054659        -0.022430         1.697470
 H        -0.264075        -0.473349        -0.496826
 H        -1.082542         2.690725        -0.200216
 H        -2.269630         1.329004        -0.588129
 H        -3.598107         2.672537         0.906037
 H        -1.447188         2.270327         4.064072
 H         0.354237         2.553907         2.145629
 H         0.444005         0.845061         3.045009
 H        -3.528497         0.978302         2.873671
 H        -1.705142        -0.763421         2.438689
 H        -2.641758        -0.407453         0.867456
