19
Iteration:  3589
 O        -0.014014        -0.120237         0.223486
 C        -0.818564         0.797657         0.999936
 C        -1.543653         1.821453         0.197558
 C        -2.611765         2.248681         1.214562
 O        -2.078077         3.172057         2.243703
 C        -1.527166         2.037620         2.979416
 C        -0.159221         1.522666         2.239302
 C        -2.601266         1.194070         2.466714
 C        -1.859646        -0.028315         1.715186
 H         0.692134        -0.505966         0.752863
 H        -0.926910         2.678879         0.064554
 H        -1.910075         1.406501        -0.795109
 H        -3.470742         2.584080         0.658829
 H        -1.333901         2.256382         4.037794
 H         0.571958         2.214265         1.839700
 H         0.450348         0.907364         2.894084
 H        -3.555197         1.083709         3.009249
 H        -1.564919        -0.723011         2.431520
 H        -2.462828        -0.576713         1.002646
