19
Iteration:  4448
 O         0.060145         0.165712         0.203909
 C        -0.803270         0.783618         1.049266
 C        -1.625073         1.726021         0.250085
 C        -2.668648         2.200529         1.224626
 O        -1.916863         3.126425         2.158855
 C        -1.448809         2.073733         2.974076
 C        -0.199749         1.410728         2.310657
 C        -2.601181         1.158810         2.407695
 C        -2.026391        -0.060413         1.681738
 H         0.730222        -0.381450         0.679732
 H        -0.957241         2.557343        -0.102101
 H        -2.044033         1.252688        -0.651074
 H        -3.637771         2.460861         0.750393
 H        -1.303660         2.385481         4.022928
 H         0.474386         2.330913         2.315730
 H         0.228717         0.559655         3.101222
 H        -3.519496         1.210176         3.018744
 H        -1.490041        -0.735833         2.340875
 H        -2.726450        -0.544529         1.058791
