19
Iteration:  2955
 O         0.164695        -0.029191         0.319954
 C        -0.829366         0.714164         1.021549
 C        -1.688330         1.747541         0.257525
 C        -2.665570         2.289528         1.313679
 O        -1.972105         3.271891         2.212235
 C        -1.486117         2.118952         2.876327
 C        -0.250960         1.472537         2.236063
 C        -2.609433         1.119080         2.346896
 C        -1.852208        -0.038028         1.670387
 H        -0.047954        -0.960549         0.281437
 H        -0.979538         2.525154         0.009895
 H        -2.048262         1.451599        -0.768100
 H        -3.672728         2.699997         1.019503
 H        -1.396051         2.227677         4.019648
 H         0.645662         2.133929         1.980411
 H         0.219464         0.761175         2.938074
 H        -3.562603         0.900529         2.852492
 H        -1.411093        -0.751331         2.392416
 H        -2.669326        -0.666153         1.213996
