19
Iteration:   433charge 0 multiplicity 1
 O         0.162355        -0.021707         0.314298
 C        -0.732843         0.756046         1.053613
 C        -1.520801         1.790961         0.254287
 C        -2.585599         2.277651         1.260767
 O        -1.943464         3.210990         2.160658
 C        -1.582511         2.045080         3.013781
 C        -0.294635         1.361524         2.474090
 C        -2.662950         1.161318         2.352133
 C        -2.007604        -0.053378         1.521721
 H         0.372122         0.657807        -0.352913
 H        -1.024302         2.782150        -0.146683
 H        -1.819949         1.191843        -0.667108
 H        -3.572416         2.628157         0.846159
 H        -1.549766         2.368546         4.050638
 H         0.577146         1.940869         2.149197
 H         0.279496         0.706558         3.151822
 H        -3.635888         0.974381         2.784875
 H        -2.272335        -0.993017         1.963551
 H        -2.634937        -0.079604         0.590580
