19
Iteration:  4219
 O         0.000214        -0.066137         0.197321
 C        -0.772760         0.769286         1.052391
 C        -1.510819         1.855531         0.192281
 C        -2.657013         2.334706         1.287035
 O        -2.051105         3.173142         2.255002
 C        -1.482182         1.942660         2.935928
 C        -0.139302         1.502001         2.288450
 C        -2.647936         1.136600         2.329966
 C        -1.948373        -0.022009         1.764509
 H         0.952882        -0.231060         0.339154
 H        -0.905617         2.734291        -0.197139
 H        -1.920645         1.334820        -0.670749
 H        -3.688091         2.707152         0.998134
 H        -1.232644         2.008699         4.009648
 H         0.433958         2.277269         1.988187
 H         0.328751         0.907215         3.022118
 H        -3.594881         1.024846         2.798225
 H        -1.482197        -0.832451         2.315170
 H        -2.613533        -0.586872         1.077916
