19
Iteration:   589
 O         0.133602        -0.030074         0.304634
 C        -0.771230         0.728694         1.026298
 C        -1.516121         1.788964         0.226553
 C        -2.641190         2.351272         1.239510
 O        -1.969315         3.244501         2.302695
 C        -1.590536         2.020496         2.967438
 C        -0.185126         1.453930         2.344009
 C        -2.683575         1.140318         2.205977
 C        -1.953831        -0.052306         1.604205
 H         0.384483        -0.861363         0.779903
 H        -0.960413         2.748900        -0.059461
 H        -1.966417         1.196043        -0.637994
 H        -3.521321         2.881729         0.975546
 H        -1.751882         1.938283         4.053913
 H         0.440805         2.314476         2.080681
 H         0.298935         0.680373         2.976748
 H        -3.603055         0.979475         2.819423
 H        -1.708074        -0.840903         2.292222
 H        -2.567338        -0.356711         0.758207
