19
Iteration:  1034charge 0 multiplicity 1
 O         0.085457        -0.049876         0.324767
 C        -0.804400         0.721746         1.074917
 C        -1.515775         1.673615         0.215099
 C        -2.588142         2.298324         1.187332
 O        -2.020447         3.229055         2.239689
 C        -1.505757         2.017040         2.966831
 C        -0.253742         1.594179         2.254427
 C        -2.682552         1.127780         2.330092
 C        -1.924001        -0.094712         1.754593
 H         0.654124         0.599634        -0.128536
 H        -0.769681         2.390134        -0.212079
 H        -2.092125         1.052306        -0.446104
 H        -3.491376         2.843520         0.673963
 H        -1.389123         2.215550         4.038176
 H         0.340277         2.471289         1.801437
 H         0.415209         0.953030         3.073765
 H        -3.704439         1.141963         2.728426
 H        -1.467218        -1.009876         2.302080
 H        -2.675306        -0.304835         0.871166
