19
Iteration:  2216
 O         0.213944         0.035016         0.366077
 C        -0.785645         0.785491         1.043281
 C        -1.816409         1.657635         0.222825
 C        -2.724392         2.215897         1.313902
 O        -1.938555         3.175808         1.986336
 C        -1.443338         2.104110         2.924077
 C        -0.155209         1.569849         2.278085
 C        -2.561601         1.122361         2.358458
 C        -1.925786        -0.047009         1.859642
 H        -0.209051        -0.376337        -0.407396
 H        -1.392306         2.587170        -0.218971
 H        -2.412224         1.014295        -0.569487
 H        -3.752979         2.557530         0.924848
 H        -1.543983         2.395182         3.932358
 H         0.510794         2.364473         1.989743
 H         0.361459         0.874443         2.910807
 H        -3.456615         0.908393         3.035610
 H        -1.332571        -0.614918         2.576499
 H        -2.647052        -0.698261         1.308606
