19
Iteration:  2388charge 0 multiplicity 1
 O         0.079534        -0.114138         0.225415
 C        -0.733699         0.791022         1.067992
 C        -1.673769         1.721658         0.255771
 C        -2.726619         2.217408         1.233850
 O        -2.011932         3.250722         2.167956
 C        -1.480727         2.114314         2.906251
 C        -0.144566         1.496004         2.293310
 C        -2.625848         1.155362         2.347147
 C        -1.933472        -0.020440         1.763890
 H         1.013013        -0.086816         0.566009
 H        -1.267956         2.529012        -0.404037
 H        -2.164589         1.033740        -0.426550
 H        -3.686124         2.548392         0.796383
 H        -1.263553         2.458743         3.963878
 H         0.726201         2.290669         2.117383
 H         0.329630         0.920637         3.120269
 H        -3.465696         1.005571         3.040986
 H        -1.545157        -0.600219         2.635230
 H        -2.368310        -0.707612         0.996548
