19
Iteration:  2694
 O         0.062050        -0.009106         0.405649
 C        -0.814706         0.803026         1.087979
 C        -1.577544         1.722901         0.250951
 C        -2.566344         2.310449         1.264928
 O        -1.981266         3.193594         2.184879
 C        -1.480662         2.025181         2.914353
 C        -0.223045         1.498403         2.258174
 C        -2.593737         1.108706         2.352722
 C        -1.965176        -0.056894         1.619963
 H        -0.317104        -0.212946        -0.455777
 H        -1.012524         2.487708        -0.218873
 H        -2.135635         1.163752        -0.564176
 H        -3.456824         2.584560         0.817867
 H        -1.406737         2.244129         3.999065
 H         0.558213         2.302436         2.074431
 H         0.358137         0.972460         3.031628
 H        -3.508513         1.122187         3.062876
 H        -1.539742        -0.876171         2.177716
 H        -2.602702        -0.399073         0.771481
