19
Iteration:  2546charge 0 multiplicity 1
 O         0.228927        -0.207482         0.312214
 C        -0.735543         0.746272         1.021128
 C        -1.612857         1.767543         0.159239
 C        -2.626238         2.255299         1.247313
 O        -2.011176         3.250887         2.235692
 C        -1.484914         1.998573         3.006148
 C        -0.180328         1.638688         2.306634
 C        -2.642563         1.187772         2.340828
 C        -2.053598        -0.015688         1.695572
 H        -0.236827        -0.449918        -0.512627
 H        -1.121106         2.670999        -0.218364
 H        -2.258285         1.286125        -0.573289
 H        -3.634394         2.672309         0.928697
 H        -1.442168         2.219514         4.043768
 H         0.337148         2.565418         2.155965
 H         0.411520         0.836504         3.039300
 H        -3.561282         0.992237         2.863477
 H        -1.676095        -0.741138         2.425203
 H        -2.687810        -0.409789         0.889494
