19
Iteration:  3994
 O         0.107696        -0.037094         0.241454
 C        -0.788766         0.803279         1.019304
 C        -1.589082         1.802195         0.221420
 C        -2.651579         2.307495         1.285652
 O        -2.003309         3.157893         2.280253
 C        -1.497683         2.010065         2.961427
 C        -0.127665         1.406309         2.266449
 C        -2.631317         1.171389         2.341177
 C        -1.982246         0.052487         1.678984
 H         0.030682        -0.949264         0.572934
 H        -1.060695         2.637585        -0.168248
 H        -2.143294         1.311831        -0.687693
 H        -3.597012         2.558554         0.879632
 H        -1.598230         2.162677         4.046199
 H         0.497460         2.267527         1.952745
 H         0.543138         0.849954         2.800373
 H        -3.519596         1.003727         2.882177
 H        -1.393710        -0.729941         2.312447
 H        -2.635326        -0.398122         0.896109
