19
Iteration:  1248charge 0 multiplicity 1
 O         0.155066        -0.097948         0.390428
 C        -0.760435         0.700690         1.143373
 C        -1.603694         1.820354         0.227513
 C        -2.641818         2.229179         1.200182
 O        -2.027357         3.229719         2.177964
 C        -1.489900         2.045022         2.874084
 C        -0.181345         1.558197         2.339561
 C        -2.645114         1.118155         2.303091
 C        -1.981809        -0.041842         1.685892
 H         0.005767         0.104791        -0.541008
 H        -0.995887         2.666874        -0.002310
 H        -2.054640         1.229891        -0.497565
 H        -3.554530         2.635999         0.783657
 H        -1.547196         2.260297         3.966968
 H         0.401812         2.420666         1.923211
 H         0.595250         0.964321         3.021390
 H        -3.524542         0.938564         3.047757
 H        -1.814754        -0.889049         2.387535
 H        -2.331736        -0.320806         0.664543
