19
Iteration:  1414charge 0 multiplicity 1
 O         0.157349        -0.117662         0.415442
 C        -0.796242         0.698782         1.064070
 C        -1.545558         1.778023         0.151047
 C        -2.579634         2.339708         1.248760
 O        -2.020399         3.223922         2.211025
 C        -1.566283         1.964296         2.940271
 C        -0.234469         1.627257         2.266560
 C        -2.641925         1.118035         2.277961
 C        -1.957944        -0.048518         1.722184
 H         0.185567         0.081757        -0.522308
 H        -0.945358         2.661952        -0.221737
 H        -2.062008         1.277306        -0.646621
 H        -3.524340         2.736457         0.828366
 H        -1.637552         2.096516         4.025837
 H         0.513427         2.467897         2.138054
 H         0.285357         0.877845         2.959684
 H        -3.502758         0.946866         2.882124
 H        -1.546679        -0.620986         2.566615
 H        -2.519040        -0.679030         1.047787
