19
Iteration:  2422charge 0 multiplicity 1
 O         0.132389        -0.127507         0.371082
 C        -0.825668         0.732062         1.037631
 C        -1.555138         1.809409         0.241328
 C        -2.582654         2.182072         1.259532
 O        -2.020126         3.232779         2.201979
 C        -1.485693         2.120854         2.901942
 C        -0.278159         1.576873         2.149937
 C        -2.601190         1.138661         2.439065
 C        -1.970116        -0.080158         1.729134
 H         0.222135         0.138935        -0.576271
 H        -0.885574         2.590511        -0.033140
 H        -1.900039         1.276171        -0.636427
 H        -3.611538         2.428531         0.838738
 H        -1.274477         2.421182         3.921011
 H         0.252040         2.505805         1.670766
 H         0.300509         0.883624         2.827833
 H        -3.575765         1.058238         3.067963
 H        -1.652165        -0.612065         2.641993
 H        -2.515912        -0.854768         1.137849
