19
Iteration:  1591charge 0 multiplicity 1
 O         0.251045         0.127059         0.337179
 C        -0.829422         0.640145         1.036599
 C        -1.672197         1.615836         0.170310
 C        -2.560792         2.267125         1.220122
 O        -1.997345         3.258404         2.192107
 C        -1.546725         2.076791         2.938150
 C        -0.160397         1.484575         2.296840
 C        -2.648447         1.205230         2.337224
 C        -2.001324        -0.125112         1.813137
 H         0.080057        -0.150242        -0.568706
 H        -0.908700         2.271707        -0.440903
 H        -2.357568         1.167787        -0.568730
 H        -3.548615         2.702471         0.773207
 H        -1.530610         2.278532         4.047704
 H         0.478873         2.377580         2.005243
 H         0.328454         0.806006         3.057210
 H        -3.659604         1.134282         2.828871
 H        -1.700627        -0.791658         2.621968
 H        -2.629390        -0.652120         1.158089
