19
Iteration:  4498charge 0 multiplicity 1
 O         0.138885        -0.065903         0.230498
 C        -0.783726         0.750259         0.999943
 C        -1.551901         1.778922         0.162383
 C        -2.602188         2.335022         1.301072
 O        -2.097249         3.185615         2.326746
 C        -1.476347         2.010954         2.978767
 C        -0.245096         1.548123         2.175784
 C        -2.580055         1.120155         2.344549
 C        -1.948771         0.000470         1.756201
 H         0.014143        -0.990194         0.481212
 H        -0.897434         2.631563        -0.249810
 H        -2.140345         1.426498        -0.695304
 H        -3.509653         2.706834         0.835871
 H        -1.399758         1.945380         4.108946
 H         0.390708         2.398612         1.748416
 H         0.172819         0.988026         2.942635
 H        -3.401777         1.033868         3.009694
 H        -1.505902        -0.781404         2.458610
 H        -2.559630        -0.516414         0.946206
