19
Iteration:  1549charge 0 multiplicity 1
 O         0.148912        -0.002647         0.375993
 C        -0.788703         0.736686         1.152504
 C        -1.670546         1.826997         0.196070
 C        -2.703337         2.217890         1.235450
 O        -1.973071         3.180052         2.094907
 C        -1.491846         2.060436         2.923084
 C        -0.109078         1.593362         2.362216
 C        -2.587203         1.093290         2.279019
 C        -1.965725        -0.066003         1.693155
 H        -0.178719        -0.922499         0.409251
 H        -1.101492         2.724808        -0.034606
 H        -1.930875         1.324988        -0.713987
 H        -3.805526         2.523648         0.998809
 H        -1.534752         2.355693         4.002552
 H         0.577575         2.392427         1.956826
 H         0.477202         0.814824         3.022673
 H        -3.611910         0.999886         2.752451
 H        -1.658024        -0.964142         2.222532
 H        -2.671092        -0.354524         0.877263
