19
Iteration:  4514
 O         0.121707         0.007296         0.341215
 C        -0.859582         0.758808         0.999403
 C        -1.583644         1.827816         0.212368
 C        -2.615454         2.240370         1.254470
 O        -2.072878         3.219492         2.303493
 C        -1.430608         2.013855         2.935850
 C        -0.132333         1.534664         2.196466
 C        -2.597239         1.138433         2.395125
 C        -1.988810        -0.122354         1.621659
 H        -0.003159        -0.889106         0.657175
 H        -0.989843         2.643882        -0.137984
 H        -2.107911         1.290201        -0.612524
 H        -3.611168         2.659303         0.972744
 H        -1.202964         2.364015         3.940523
 H         0.493340         2.383487         1.966745
 H         0.695886         0.834429         2.551633
 H        -3.598231         1.040430         2.917973
 H        -1.709309        -0.921747         2.285812
 H        -2.684240        -0.446817         0.887656
