19
Iteration:   895charge 0 multiplicity 1
 O         0.221892        -0.057014         0.419543
 C        -0.742779         0.780011         0.998741
 C        -1.623669         1.869461         0.268295
 C        -2.682273         2.261340         1.304245
 O        -2.027756         3.182188         2.133544
 C        -1.496792         2.054924         2.939675
 C        -0.211364         1.528184         2.265474
 C        -2.646654         1.119454         2.350556
 C        -1.991723        -0.063634         1.623794
 H        -0.126501        -0.945614         0.275886
 H        -0.801506         2.623756        -0.002289
 H        -2.109397         1.396559        -0.714830
 H        -3.633790         2.601892         0.945503
 H        -1.409514         2.313080         4.024674
 H         0.611505         2.230955         1.955852
 H         0.250432         0.681332         2.825225
 H        -3.508329         1.223923         2.987768
 H        -1.616549        -0.879947         2.299372
 H        -2.445195        -0.559413         0.673047
