19
Iteration:   717
 O         0.157613        -0.038515         0.218933
 C        -0.776314         0.769831         1.095573
 C        -1.506160         1.733909         0.262286
 C        -2.630978         2.263639         1.286643
 O        -2.067560         3.272684         2.164762
 C        -1.533288         2.052498         2.970236
 C        -0.225572         1.430540         2.376570
 C        -2.617312         1.206108         2.357774
 C        -1.997623        -0.069737         1.552910
 H         0.467948        -0.727375         0.819021
 H        -1.008549         2.665779        -0.041229
 H        -1.750356         1.354711        -0.673118
 H        -3.552992         2.649582         0.816166
 H        -1.280702         2.308593         3.977070
 H         0.458739         2.229162         2.179918
 H         0.175325         0.836574         3.220615
 H        -3.509304         0.980619         2.980485
 H        -1.835332        -0.925916         2.229637
 H        -2.588506        -0.473580         0.648585
