19
Iteration:  4954
 O         0.197626         0.084209         0.383053
 C        -0.850938         0.700013         1.016494
 C        -1.782634         1.803410         0.247417
 C        -2.633333         2.272384         1.312764
 O        -1.769518         3.160870         2.135433
 C        -1.526267         1.984792         2.962352
 C        -0.237050         1.485015         2.291493
 C        -2.644938         1.134053         2.310987
 C        -1.967487        -0.124536         1.676231
 H         0.169545         0.095693        -0.574667
 H        -1.280180         2.633577        -0.342829
 H        -2.500805         1.430279        -0.464890
 H        -3.544684         2.948003         1.146456
 H        -1.511426         2.184374         4.049797
 H         0.374649         2.308265         1.927752
 H         0.399243         0.842790         2.918677
 H        -3.519806         1.126169         2.948463
 H        -1.601148        -0.706121         2.502783
 H        -2.540178        -0.569210         0.909988
