19
Iteration:  4631
 O         0.052358        -0.022863         0.342007
 C        -0.815649         0.772163         1.031089
 C        -1.575247         1.815725         0.151211
 C        -2.641202         2.320742         1.286551
 O        -2.076022         3.212452         2.288260
 C        -1.470090         2.058605         2.945184
 C        -0.160622         1.485793         2.167366
 C        -2.513200         1.076566         2.423408
 C        -1.974048        -0.072850         1.587529
 H         0.292931        -0.768170         0.927529
 H        -1.306530         2.818391        -0.251905
 H        -2.327298         1.366294        -0.478675
 H        -3.493981         2.621302         0.770714
 H        -1.268704         2.139856         4.072119
 H         0.787239         2.175588         2.035671
 H         0.386831         0.740098         2.775674
 H        -3.452721         1.005086         2.961271
 H        -1.343588        -0.683661         2.271756
 H        -2.527574        -0.642597         0.848936
