19
Iteration:  1271charge 0 multiplicity 1
 O         0.205203        -0.100178         0.400598
 C        -0.853838         0.681657         0.968130
 C        -1.432445         1.835383         0.210648
 C        -2.623364         2.275554         1.265167
 O        -2.183759         3.238018         2.191981
 C        -1.516446         2.115133         2.922113
 C        -0.252627         1.453203         2.234434
 C        -2.584448         1.150335         2.363101
 C        -1.975456        -0.067551         1.729714
 H         0.238996        -0.006599        -0.569622
 H        -0.663990         2.614628         0.231209
 H        -1.875242         1.511831        -0.670327
 H        -3.532580         2.665530         0.749576
 H        -1.208783         2.485263         3.933795
 H         0.581568         2.173802         1.985878
 H         0.220636         0.670703         2.968308
 H        -3.488199         0.938003         3.023836
 H        -1.481979        -0.666757         2.541332
 H        -2.704485        -0.637506         1.134193
