19
Iteration:    93charge 0 multiplicity 1
 O         0.060289        -0.190892         0.377708
 C        -0.760131         0.758266         0.999731
 C        -1.442229         1.987012         0.246551
 C        -2.575427         2.384202         1.258188
 O        -2.043530         3.238293         2.328183
 C        -1.604517         1.974702         2.946175
 C        -0.276256         1.340622         2.298043
 C        -2.707783         1.103942         2.165480
 C        -1.875640         0.015247         1.586262
 H         1.016462        -0.125811         0.580310
 H        -0.853120         2.908718         0.133101
 H        -1.853287         1.627446        -0.696871
 H        -3.515709         2.786467         0.780049
 H        -1.462124         2.154167         4.046156
 H         0.367820         2.243813         2.116204
 H         0.106164         0.512175         3.026392
 H        -3.740229         0.950120         2.596786
 H        -1.383440        -0.667621         2.341118
 H        -2.482223        -0.638279         0.904611
