19
Iteration:  3006
 O         0.214761         0.100793         0.314862
 C        -0.842948         0.710742         1.070511
 C        -1.732223         1.719468         0.256624
 C        -2.592913         2.297797         1.285349
 O        -1.860757         3.220448         2.064813
 C        -1.490711         2.050347         2.968483
 C        -0.294682         1.430386         2.278807
 C        -2.660976         1.146169         2.386407
 C        -1.923075        -0.096627         1.745137
 H        -0.005189         0.090258        -0.641449
 H        -1.052666         2.531759        -0.340605
 H        -2.280584         1.171390        -0.514872
 H        -3.641986         2.703694         0.918800
 H        -1.431399         2.292661         4.050374
 H         0.371559         2.223361         1.996034
 H         0.143401         0.552834         2.835935
 H        -3.570669         1.081131         3.054329
 H        -1.631164        -0.777866         2.605835
 H        -2.532464        -0.821884         1.192166
