19
Iteration:  2295charge 0 multiplicity 1
 O        -0.037098        -0.137005         0.358440
 C        -0.757416         0.758395         1.069543
 C        -1.637371         1.763247         0.188934
 C        -2.620892         2.207508         1.229202
 O        -2.089775         3.184134         2.138096
 C        -1.479384         2.132994         2.920922
 C        -0.185457         1.618918         2.209934
 C        -2.532188         1.124651         2.369257
 C        -1.823703        -0.038753         1.821411
 H         0.667891         0.381090        -0.058025
 H        -1.044807         2.569858        -0.216478
 H        -2.309319         1.367971        -0.681431
 H        -3.673043         2.319224         0.895306
 H        -1.454164         2.399270         3.990478
 H         0.557252         2.295712         2.035023
 H         0.323405         0.821888         2.774437
 H        -3.455096         0.968979         3.039159
 H        -1.271471        -0.655161         2.575562
 H        -2.310014        -0.748667         1.117649
