19
Iteration:  3559
 O         0.084138        -0.065711         0.206145
 C        -0.798755         0.709433         1.066991
 C        -1.604465         1.799589         0.215153
 C        -2.673877         2.331481         1.277041
 O        -1.971460         3.217367         2.255760
 C        -1.474191         2.045675         2.873107
 C        -0.157700         1.595844         2.272144
 C        -2.652331         1.108787         2.398979
 C        -1.959640        -0.131260         1.674432
 H         0.643964        -0.553165         0.868979
 H        -0.996573         2.621941        -0.031750
 H        -2.181300         1.223396        -0.619722
 H        -3.515988         2.807900         0.784996
 H        -1.375040         2.296674         4.006555
 H         0.535781         2.287195         1.725039
 H         0.357608         1.129289         3.068762
 H        -3.581681         1.005797         3.040531
 H        -1.746545        -0.731767         2.552912
 H        -2.521349        -0.746367         0.998708
