19
Iteration:  3098charge 0 multiplicity 1
 O         0.135279         0.004053         0.173962
 C        -0.787455         0.784362         1.037171
 C        -1.645244         1.726729         0.154313
 C        -2.696371         2.265784         1.275939
 O        -1.961653         3.200737         2.149873
 C        -1.546355         2.064349         2.933623
 C        -0.177065         1.401352         2.265191
 C        -2.632165         1.158717         2.459855
 C        -1.926412         0.031226         1.852818
 H         0.783726        -0.384073         0.779323
 H        -1.227456         2.504990        -0.453813
 H        -2.335515         1.193546        -0.664739
 H        -3.547013         2.778556         0.798668
 H        -1.325163         2.336390         4.002767
 H         0.609369         2.204639         2.107189
 H         0.263503         0.556525         2.820345
 H        -3.510231         0.936504         3.019307
 H        -1.551696        -0.624630         2.622271
 H        -2.434368        -0.682868         1.159463
