19
Iteration:   781charge 0 multiplicity 1
 O         0.243472        -0.030180         0.430326
 C        -0.776729         0.740773         1.046276
 C        -1.656732         1.732480         0.189356
 C        -2.570424         2.370924         1.270169
 O        -1.979275         3.226942         2.190339
 C        -1.494401         1.995728         2.950364
 C        -0.263976         1.483090         2.256269
 C        -2.665488         1.117985         2.297346
 C        -2.034214        -0.081113         1.688900
 H         0.465431         0.347857        -0.437563
 H        -0.954505         2.567312        -0.100865
 H        -2.189292         1.328784        -0.794856
 H        -3.536773         2.808989         0.893274
 H        -1.405233         2.142361         4.038079
 H         0.444048         2.274787         2.198892
 H         0.110604         0.669213         2.872899
 H        -3.641025         1.096197         2.842500
 H        -1.718931        -0.874064         2.419986
 H        -2.680346        -0.548708         0.885973
