19
Iteration:   709
 O         0.193512         0.000579         0.261025
 C        -0.785570         0.683133         1.053423
 C        -1.568481         1.793922         0.254508
 C        -2.700932         2.269849         1.290719
 O        -1.990930         3.287003         2.160447
 C        -1.482451         1.990379         2.898006
 C        -0.240607         1.443325         2.372396
 C        -2.679488         1.176270         2.333122
 C        -2.009108        -0.046565         1.650629
 H         0.825115        -0.340417         0.912989
 H        -0.801524         2.612560         0.048670
 H        -1.858074         1.354168        -0.714790
 H        -3.543288         2.599494         0.740229
 H        -1.432203         2.257321         3.961764
 H         0.587283         2.188536         2.184711
 H         0.080030         0.564525         3.033516
 H        -3.520982         0.912562         2.956510
 H        -1.840364        -0.904031         2.269960
 H        -2.568302        -0.283135         0.750078
