19
Iteration:  2525
 O         0.077549        -0.128395         0.379403
 C        -0.789469         0.751070         1.021832
 C        -1.601910         1.756031         0.197485
 C        -2.596118         2.319878         1.258076
 O        -2.024520         3.227747         2.222843
 C        -1.506816         2.107950         2.954879
 C        -0.252687         1.479453         2.267686
 C        -2.604190         1.161526         2.332391
 C        -1.873396        -0.077870         1.700864
 H         0.188897         0.177579        -0.530657
 H        -0.924563         2.512374        -0.277393
 H        -2.244570         1.280196        -0.542081
 H        -3.514236         2.723358         0.801744
 H        -1.532970         2.385815         4.002480
 H         0.467181         2.207028         1.920771
 H         0.320905         0.797734         3.063199
 H        -3.432586         0.983165         2.949109
 H        -1.479888        -0.818713         2.419202
 H        -2.430881        -0.536044         0.892830
