19
Iteration:  3076
 O        -0.013239        -0.089849         0.239917
 C        -0.854647         0.708628         1.094518
 C        -1.581197         1.757382         0.274011
 C        -2.653886         2.297567         1.284134
 O        -2.066876         3.239557         2.196525
 C        -1.445843         2.056952         2.901145
 C        -0.147281         1.594965         2.228121
 C        -2.526697         1.147660         2.304905
 C        -1.937979        -0.133406         1.769280
 H         0.929524        -0.089813         0.529788
 H        -1.023181         2.621247         0.020611
 H        -2.031362         1.401570        -0.745329
 H        -3.546825         2.693246         0.804462
 H        -1.241645         2.246810         3.979909
 H         0.529497         2.439329         1.903595
 H         0.256400         0.940197         2.976455
 H        -3.438103         1.080069         2.830478
 H        -1.429188        -0.743961         2.496083
 H        -2.392581        -0.861794         1.070501
