19
Iteration:  4121
 O         0.061793        -0.129502         0.214660
 C        -0.840006         0.739545         1.051467
 C        -1.532397         1.837168         0.275099
 C        -2.603497         2.338065         1.298337
 O        -2.074088         3.202722         2.300606
 C        -1.486223         2.041626         2.959522
 C        -0.202130         1.455978         2.294215
 C        -2.625113         1.166559         2.260906
 C        -1.870033        -0.070359         1.703858
 H         0.119739         0.333918        -0.637789
 H        -0.794154         2.630775        -0.021082
 H        -1.846972         1.318985        -0.594910
 H        -3.526660         2.770970         0.774035
 H        -1.481819         2.192158         4.042498
 H         0.549708         2.223562         2.051583
 H         0.229669         0.635239         2.960896
 H        -3.583149         1.230966         2.708392
 H        -1.410199        -0.723894         2.453902
 H        -2.578721        -0.611014         1.029294
