19
Iteration:  4047
 O         0.127961         0.056174         0.190576
 C        -0.779656         0.782832         1.033502
 C        -1.659738         1.759912         0.217801
 C        -2.699311         2.327607         1.247074
 O        -1.898509         3.117641         2.228247
 C        -1.397031         1.990776         2.960056
 C        -0.245084         1.354479         2.319319
 C        -2.656537         1.217130         2.314382
 C        -2.035463        -0.033066         1.752632
 H         0.999203         0.381352         0.485868
 H        -0.976920         2.466305        -0.148633
 H        -2.265213         1.297972        -0.637770
 H        -3.675488         2.570034         0.834608
 H        -1.271250         2.277448         3.950470
 H         0.577935         2.157921         2.386570
 H         0.047297         0.479735         2.962046
 H        -3.523174         1.139450         2.898238
 H        -1.777869        -0.593726         2.618157
 H        -2.559654        -0.473825         0.931907
