19
Iteration:  3801
 O         0.025964         0.117199         0.235472
 C        -0.856183         0.741609         1.086971
 C        -1.659392         1.720402         0.252632
 C        -2.677874         2.301982         1.228324
 O        -1.905167         3.132760         2.139000
 C        -1.431529         2.021548         2.913357
 C        -0.182487         1.451088         2.331947
 C        -2.632178         1.172652         2.345184
 C        -1.957724        -0.074417         1.766195
 H         0.689269        -0.373747         0.736303
 H        -0.981571         2.577416        -0.044996
 H        -2.066582         1.296621        -0.668111
 H        -3.531495         2.691737         0.685306
 H        -1.256180         2.387653         3.968394
 H         0.516006         2.235875         2.019550
 H         0.417994         0.763912         3.021300
 H        -3.505889         1.093970         2.909094
 H        -1.529362        -0.752369         2.419443
 H        -2.351718        -0.654809         0.987741
