19
Iteration:   460charge 0 multiplicity 1
 O         0.125701        -0.105302         0.408106
 C        -0.833913         0.734536         1.011399
 C        -1.467341         1.932183         0.215805
 C        -2.591996         2.399792         1.259432
 O        -2.029383         3.201719         2.306013
 C        -1.538290         1.914708         2.898511
 C        -0.293047         1.400130         2.284887
 C        -2.651433         1.173424         2.165488
 C        -1.949768        -0.074241         1.679183
 H         0.634276         0.429888        -0.215958
 H        -0.754081         2.736901         0.096233
 H        -1.827499         1.606032        -0.752869
 H        -3.549448         2.754897         0.825769
 H        -1.568728         1.990934         4.001610
 H         0.540448         2.149307         2.058056
 H         0.244608         0.713913         2.978120
 H        -3.599386         1.107655         2.756201
 H        -1.719282        -0.649087         2.654096
 H        -2.464818        -0.872744         1.125907
