19
Iteration:  4819
 O         0.248480         0.168766         0.353214
 C        -0.896291         0.707490         1.036363
 C        -1.618381         1.757379         0.111725
 C        -2.671204         2.298898         1.292505
 O        -1.906191         3.195353         2.183947
 C        -1.481795         1.993139         2.924575
 C        -0.234485         1.370468         2.276458
 C        -2.637081         1.134846         2.401098
 C        -2.026765        -0.078180         1.725236
 H        -0.057913        -0.166078        -0.517028
 H        -0.905643         2.466459        -0.094764
 H        -2.171246         1.394513        -0.766046
 H        -3.641540         2.679460         1.117281
 H        -1.430127         2.193817         4.011819
 H         0.545390         2.128772         2.014937
 H         0.377075         0.596636         2.788039
 H        -3.446990         1.215556         3.173368
 H        -1.695175        -0.705819         2.532305
 H        -2.679714        -0.551925         1.058357
