19
Iteration:  1837
 O         0.124225         0.063161         0.308000
 C        -0.872962         0.685036         1.124649
 C        -1.667420         1.695188         0.187029
 C        -2.661834         2.208866         1.217778
 O        -1.915997         3.160429         2.062901
 C        -1.478883         2.030514         2.942029
 C        -0.188386         1.547510         2.262410
 C        -2.630619         1.201527         2.381067
 C        -1.941764        -0.067236         1.841943
 H         0.658119         0.829993         0.069773
 H        -1.037996         2.438246        -0.246774
 H        -2.165151         0.992085        -0.572777
 H        -3.567517         2.527046         0.742819
 H        -1.399770         2.261146         4.007142
 H         0.392245         2.377395         1.787128
 H         0.476281         1.032872         3.002185
 H        -3.616090         0.992620         2.916162
 H        -1.556157        -0.625881         2.642210
 H        -2.641023        -0.742008         1.358007
