19
Iteration:   451
 O         0.169317        -0.089889         0.371433
 C        -0.821813         0.758996         1.007501
 C        -1.472516         1.888295         0.262939
 C        -2.574098         2.343591         1.224208
 O        -2.027494         3.193154         2.253286
 C        -1.534513         1.984982         2.907092
 C        -0.270624         1.405762         2.365253
 C        -2.677623         1.139193         2.254617
 C        -2.036607        -0.042077         1.639819
 H         0.570998         0.464107        -0.313436
 H        -0.751167         2.593258         0.058717
 H        -1.857619         1.572631        -0.709508
 H        -3.542267         2.806528         0.955541
 H        -1.446279         2.045238         4.010631
 H         0.570274         2.120698         2.162727
 H         0.055990         0.446955         2.870085
 H        -3.568329         1.079050         2.840791
 H        -1.482801        -0.650435         2.438397
 H        -2.596151        -0.597726         0.883886
