19
Iteration:  4555
 O         0.123060         0.112858         0.139860
 C        -0.825756         0.799011         1.014654
 C        -1.675162         1.744643         0.179515
 C        -2.631955         2.265168         1.297225
 O        -1.922180         3.189352         2.171986
 C        -1.484367         2.069935         2.977863
 C        -0.209715         1.357855         2.380494
 C        -2.663129         1.155642         2.369682
 C        -1.948425        -0.061356         1.767224
 H         0.624502        -0.499325         0.723814
 H        -1.080240         2.567219        -0.346813
 H        -2.256700         1.170639        -0.541709
 H        -3.516053         2.641365         0.835790
 H        -1.634228         2.202393         4.111921
 H         0.658540         2.108849         2.084965
 H         0.193215         0.632151         3.020220
 H        -3.560169         1.152554         2.987898
 H        -1.302309        -0.803762         2.373567
 H        -2.507023        -0.687969         1.039121
