19
Iteration:  1502charge 0 multiplicity 1
 O         0.160914        -0.049208         0.276312
 C        -0.781374         0.665313         1.032369
 C        -1.591878         1.795801         0.169111
 C        -2.615912         2.318940         1.172004
 O        -2.053155         3.237590         2.281480
 C        -1.535506         2.071672         2.931420
 C        -0.274880         1.498399         2.280163
 C        -2.618586         1.216898         2.230401
 C        -1.898293        -0.149306         1.797213
 H         0.634498        -0.470190         1.007691
 H        -1.012581         2.744366        -0.261167
 H        -2.130367         1.312419        -0.661485
 H        -3.633764         2.628041         0.809077
 H        -1.514207         2.178122         4.041139
 H         0.451989         2.376507         2.006117
 H         0.267432         0.739870         2.932427
 H        -3.424092         1.138293         2.932769
 H        -1.666035        -0.502140         2.819492
 H        -2.329909        -0.888895         1.215045
