19
Iteration:  1765
 O         0.095522         0.045935         0.336642
 C        -0.817281         0.669281         1.129931
 C        -1.523342         1.755694         0.233195
 C        -2.523661         2.213383         1.213397
 O        -2.100407         3.175755         2.154592
 C        -1.525481         2.125914         2.923045
 C        -0.239973         1.551975         2.148581
 C        -2.566558         1.122400         2.400694
 C        -1.940726        -0.062220         1.793137
 H        -0.243057        -0.724185        -0.129951
 H        -0.784838         2.610180        -0.047207
 H        -2.034566         1.281698        -0.583357
 H        -3.447067         2.585636         0.691159
 H        -1.481487         2.470442         4.008028
 H         0.296874         2.380052         1.594629
 H         0.499715         1.068896         2.747202
 H        -3.482215         1.118672         3.025129
 H        -1.474049        -0.759293         2.633301
 H        -2.556134        -0.812411         1.226324
