19
Iteration:  3241charge 0 multiplicity 1
 O         0.122859         0.103175         0.271581
 C        -0.855711         0.755726         1.039649
 C        -1.721924         1.715171         0.188612
 C        -2.646769         2.265655         1.272598
 O        -1.903369         3.222492         2.147904
 C        -1.392470         2.110231         2.929746
 C        -0.249324         1.393302         2.243145
 C        -2.606411         1.157387         2.367735
 C        -1.916395        -0.106589         1.771434
 H         0.825233        -0.109079         0.946375
 H        -1.256911         2.400712        -0.383278
 H        -2.405820         1.217437        -0.553005
 H        -3.640418         2.626583         0.956983
 H        -1.443148         2.334258         4.042549
 H         0.653798         2.065183         2.139630
 H        -0.187025         0.735826         3.110340
 H        -3.636986         0.861811         2.752859
 H        -1.580562        -0.832805         2.521097
 H        -2.593944        -0.711319         1.116902
