19
Iteration:  1226charge 0 multiplicity 1
 O         0.176734        -0.006593         0.395790
 C        -0.771450         0.789532         1.032034
 C        -1.654575         1.705805         0.158557
 C        -2.607086         2.284019         1.231591
 O        -1.870614         3.166589         2.148376
 C        -1.564696         2.038228         3.016541
 C        -0.289106         1.565748         2.324795
 C        -2.676008         1.150995         2.331778
 C        -1.928351        -0.069300         1.713290
 H         0.092719         0.061622        -0.577318
 H        -1.085210         2.481838        -0.358345
 H        -2.137247         0.972739        -0.463987
 H        -3.550597         2.703217         0.905740
 H        -1.843377         2.252958         4.059116
 H         0.520674         2.308385         2.155751
 H         0.212819         0.646339         2.920178
 H        -3.773182         1.127828         2.733360
 H        -1.341877        -0.717653         2.401678
 H        -2.516962        -0.694064         0.946809
