19
Iteration:   429
 O         0.158046         0.001240         0.302653
 C        -0.733526         0.740832         1.084078
 C        -1.533535         1.778340         0.248200
 C        -2.588757         2.273069         1.276803
 O        -1.924112         3.217348         2.134159
 C        -1.567662         2.033129         2.999273
 C        -0.308112         1.382285         2.534924
 C        -2.638722         1.152968         2.324457
 C        -2.027598        -0.046822         1.497153
 H         0.382473         0.673030        -0.376304
 H        -1.058151         2.595597        -0.138270
 H        -1.796598         1.162873        -0.608823
 H        -3.606168         2.587754         1.037227
 H        -1.538387         2.307699         4.073426
 H         0.455471         2.028723         2.074197
 H         0.247598         0.634905         3.143452
 H        -3.598315         0.999099         2.785436
 H        -2.296458        -0.993158         1.998706
 H        -2.580381         0.018703         0.575470
