19
Iteration:   594charge 0 multiplicity 1
 O         0.155078        -0.049425         0.313974
 C        -0.802759         0.727423         1.008647
 C        -1.493002         1.829995         0.200525
 C        -2.607079         2.353803         1.284302
 O        -2.010663         3.252315         2.277978
 C        -1.566228         2.009543         2.976830
 C        -0.171850         1.464533         2.322308
 C        -2.693146         1.103804         2.254386
 C        -1.964809        -0.057716         1.590438
 H         0.227715        -0.921770         0.716255
 H        -0.951807         2.722648         0.051986
 H        -1.730953         1.453534        -0.821250
 H        -3.606438         2.760802         0.899322
 H        -1.818346         2.127514         4.060999
 H         0.513532         2.299637         2.130839
 H         0.234391         0.605081         2.862714
 H        -3.613981         0.986281         2.795340
 H        -1.726066        -0.732188         2.486314
 H        -2.676134        -0.438285         0.821366
