19
Iteration:   200
 O         0.037881        -0.133347         0.321355
 C        -0.779456         0.727236         1.160802
 C        -1.478802         1.852822         0.192163
 C        -2.553036         2.318583         1.238058
 O        -1.922717         3.181899         2.274181
 C        -1.597620         1.968193         2.926539
 C        -0.275268         1.578251         2.432277
 C        -2.636359         1.108275         2.221891
 C        -1.966175        -0.054201         1.556923
 H         0.513079         0.460674        -0.326217
 H        -0.992350         2.680255        -0.240803
 H        -2.009470         1.365324        -0.726164
 H        -3.457456         2.847408         0.866497
 H        -1.620266         2.045376         4.045857
 H         0.299690         2.498788         2.296850
 H         0.445768         1.123255         3.057456
 H        -3.578980         0.832923         2.815769
 H        -1.893329        -0.880777         2.318990
 H        -2.535344        -0.467719         0.751807
