19
Iteration:  4223charge 0 multiplicity 1
 O        -0.034623        -0.046376         0.201030
 C        -0.738580         0.719949         1.096417
 C        -1.510689         1.905957         0.211386
 C        -2.666949         2.329206         1.270625
 O        -2.084885         3.147143         2.232512
 C        -1.492804         1.947424         2.944475
 C        -0.127303         1.481047         2.262418
 C        -2.620013         1.158991         2.336452
 C        -1.929209        -0.018805         1.727849
 H         0.873437        -0.299511         0.402935
 H        -0.879301         2.656446        -0.143302
 H        -1.873384         1.283405        -0.664424
 H        -3.661302         2.752429         0.994656
 H        -1.311270         2.038144         3.991031
 H         0.590699         2.423125         1.994565
 H         0.467083         0.831019         3.024354
 H        -3.558285         1.110198         2.974268
 H        -1.546096        -0.830362         2.365335
 H        -2.602355        -0.581469         1.050509
