19
Iteration:  4353charge 0 multiplicity 1
 O         0.015456        -0.103039         0.244048
 C        -0.767759         0.691293         1.018720
 C        -1.529513         1.853332         0.343131
 C        -2.649307         2.291950         1.302337
 O        -2.117298         3.254418         2.226384
 C        -1.525945         2.111704         2.907471
 C        -0.075795         1.452309         2.266663
 C        -2.572765         1.115386         2.363745
 C        -1.926814        -0.109024         1.704783
 H         0.451862         0.451408        -0.449253
 H        -0.944278         2.697720         0.111100
 H        -2.012432         1.483130        -0.680227
 H        -3.700577         2.615904         0.922719
 H        -1.224666         2.330407         3.909426
 H         0.643941         2.180410         1.900671
 H         0.288238         0.824420         2.987847
 H        -3.607397         0.888793         2.816369
 H        -1.622398        -0.872149         2.449636
 H        -2.502095        -0.627972         0.754189
