19
Iteration:  1940
 O         0.218145        -0.016106         0.385762
 C        -0.872009         0.752688         0.991316
 C        -1.631754         1.638828         0.179920
 C        -2.638323         2.242554         1.238370
 O        -2.097014         3.276368         2.212966
 C        -1.432719         2.165526         2.837080
 C        -0.228132         1.498808         2.190072
 C        -2.620738         1.139955         2.417191
 C        -1.920784        -0.075277         1.897240
 H         0.158476        -0.028307        -0.590487
 H        -1.070001         2.298639        -0.551555
 H        -2.250176         1.056091        -0.468909
 H        -3.574895         2.525730         0.713986
 H        -1.176772         2.282142         3.894386
 H         0.659494         2.156857         1.865695
 H         0.308134         0.790248         2.945286
 H        -3.516777         0.986762         2.912553
 H        -1.253144        -0.621824         2.597562
 H        -2.519642        -0.679869         1.222326
