19
Iteration:  3003charge 0 multiplicity 1
 O         0.222006         0.124004         0.289579
 C        -0.861190         0.699743         1.053631
 C        -1.705986         1.689356         0.245560
 C        -2.602448         2.274048         1.301406
 O        -1.850499         3.208670         2.062095
 C        -1.506966         2.042871         2.991585
 C        -0.292692         1.447896         2.283211
 C        -2.665983         1.165811         2.379281
 C        -1.956259        -0.073769         1.771407
 H         0.021789        -0.016956        -0.669685
 H        -1.084442         2.445430        -0.261413
 H        -2.243565         1.203464        -0.550470
 H        -3.522912         2.641581         0.917247
 H        -1.429671         2.317384         4.014267
 H         0.467937         2.267162         2.077061
 H         0.240788         0.600110         2.873975
 H        -3.504533         1.046564         3.088657
 H        -1.712959        -0.746107         2.597345
 H        -2.498016        -0.745926         1.099784
