19
Iteration:  3316charge 0 multiplicity 1
 O         0.130818        -0.155183         0.245847
 C        -0.787224         0.754280         1.051268
 C        -1.585260         1.796905         0.216662
 C        -2.665133         2.291118         1.293258
 O        -2.113201         3.211387         2.309747
 C        -1.439709         2.073847         2.832509
 C        -0.128796         1.507232         2.197424
 C        -2.636675         1.171144         2.309628
 C        -1.916116        -0.001577         1.765072
 H         0.485247        -0.788027         0.867477
 H        -1.045241         2.623394        -0.153497
 H        -2.237446         1.504343        -0.585594
 H        -3.633374         2.770319         0.917688
 H        -1.311617         2.359947         3.920469
 H         0.614836         2.262747         1.884222
 H         0.135052         0.638987         2.856804
 H        -3.582845         1.077214         2.935439
 H        -1.607796        -0.671514         2.554619
 H        -2.619968        -0.510956         1.045138
