19
Iteration:   766charge 0 multiplicity 1
 O         0.243045        -0.100555         0.404465
 C        -0.833264         0.705880         1.022610
 C        -1.543272         1.914453         0.268922
 C        -2.663930         2.310195         1.229975
 O        -1.962052         3.181210         2.262941
 C        -1.600285         1.989155         2.903787
 C        -0.215284         1.465137         2.254149
 C        -2.728828         1.184861         2.234673
 C        -1.930833        -0.045900         1.752176
 H         0.070647        -0.074676        -0.576784
 H        -0.975918         2.645579        -0.270310
 H        -2.088454         1.446680        -0.616528
 H        -3.494967         2.823355         0.730049
 H        -1.591060         2.159511         4.011914
 H         0.378589         2.285357         1.753874
 H         0.512616         0.860413         2.844199
 H        -3.636847         0.947730         2.773675
 H        -1.510278        -0.577353         2.617074
 H        -2.396706        -0.814080         1.195179
