19
Iteration:   712charge 0 multiplicity 1
 O         0.182051        -0.015027         0.237839
 C        -0.787413         0.718223         1.067415
 C        -1.546496         1.769330         0.266170
 C        -2.678675         2.258746         1.303170
 O        -2.020399         3.291873         2.160559
 C        -1.503167         1.996873         2.915607
 C        -0.234867         1.441161         2.384841
 C        -2.656750         1.204709         2.344647
 C        -2.006248        -0.058435         1.608022
 H         0.712891        -0.498693         0.939567
 H        -0.878303         2.608203         0.002031
 H        -1.790449         1.333125        -0.819155
 H        -3.551031         2.627810         0.728316
 H        -1.313544         2.295458         3.989114
 H         0.545051         2.222631         2.172880
 H         0.089732         0.666889         3.104525
 H        -3.490970         0.900024         2.956001
 H        -1.853822        -0.936034         2.273130
 H        -2.523981        -0.329214         0.721780
