19
Iteration:  3413
 O         0.037676         0.094984         0.272919
 C        -0.850527         0.782909         1.025039
 C        -1.637561         1.725938         0.228947
 C        -2.586418         2.216718         1.243800
 O        -1.930353         3.224018         2.112719
 C        -1.471066         2.073776         2.990978
 C        -0.193935         1.439080         2.333922
 C        -2.559830         1.127726         2.398511
 C        -1.988648        -0.076820         1.683022
 H         0.355772        -0.596124         0.844429
 H        -0.922908         2.502169        -0.376169
 H        -2.109553         1.047845        -0.535348
 H        -3.644201         2.574701         0.968582
 H        -1.351712         2.300470         4.086465
 H         0.277097         2.302121         1.941667
 H         0.232060         0.736101         3.032193
 H        -3.527282         1.120322         2.996568
 H        -1.470725        -0.755358         2.322355
 H        -2.527612        -0.519326         0.819029
