19
Iteration:  1056
 O         0.199384         0.003287         0.336899
 C        -0.802620         0.723038         1.068536
 C        -1.635361         1.813933         0.176650
 C        -2.670348         2.252286         1.267117
 O        -1.894221         3.193699         2.105200
 C        -1.562185         2.050536         2.944839
 C        -0.256825         1.456444         2.336237
 C        -2.672734         1.124752         2.238128
 C        -1.936697        -0.058553         1.795689
 H         0.439133         0.493302        -0.475108
 H        -0.945507         2.554437        -0.290342
 H        -2.256248         1.212824        -0.474136
 H        -3.650730         2.829075         1.193802
 H        -1.667948         2.240317         4.017500
 H         0.569623         2.242474         2.243174
 H         0.175615         0.535712         3.021663
 H        -3.526311         1.053678         2.878627
 H        -1.476526        -0.477166         2.746403
 H        -2.525988        -0.906097         1.259758
