19
Iteration:   839
 O         0.095308        -0.005685         0.256809
 C        -0.767430         0.707740         1.062693
 C        -1.601826         1.837667         0.244604
 C        -2.623118         2.322962         1.168720
 O        -1.945896         3.229677         2.209069
 C        -1.586809         2.012724         2.933741
 C        -0.263915         1.432989         2.307699
 C        -2.680561         1.113267         2.274188
 C        -1.909165        -0.060709         1.792427
 H         0.958283        -0.113427         0.712212
 H        -0.800904         2.630083        -0.105679
 H        -2.001612         1.347038        -0.792744
 H        -3.540029         2.734398         0.797215
 H        -1.480378         2.177755         4.029822
 H         0.443468         2.253673         2.011680
 H         0.344336         0.766661         2.956126
 H        -3.660385         0.970051         2.719372
 H        -1.392246        -0.525177         2.661463
 H        -2.501771        -0.941249         1.268311
