19
Iteration:  4319charge 0 multiplicity 1
 O         0.184254         0.060811         0.301888
 C        -0.834052         0.725397         0.976739
 C        -1.656982         1.772769         0.182635
 C        -2.610323         2.269177         1.331220
 O        -1.897634         3.200011         2.195178
 C        -1.519605         2.019769         3.003863
 C        -0.216997         1.465782         2.261447
 C        -2.642626         1.140988         2.426151
 C        -1.972576        -0.075833         1.692904
 H         0.071469        -0.009659        -0.663319
 H        -1.156163         2.666000        -0.191531
 H        -2.159876         1.207860        -0.681315
 H        -3.634096         2.641656         0.950770
 H        -1.326372         2.296155         4.049881
 H         0.501754         2.195810         2.108038
 H         0.224901         0.750426         2.908740
 H        -3.699503         1.012371         2.728584
 H        -1.659352        -0.802896         2.478930
 H        -2.729606        -0.663535         0.990931
