19
Iteration:   715
 O         0.168185        -0.030699         0.223301
 C        -0.783838         0.754527         1.084908
 C        -1.520285         1.744597         0.265955
 C        -2.648250         2.257982         1.299145
 O        -2.050689         3.283669         2.162089
 C        -1.524612         2.025673         2.948304
 C        -0.225989         1.434658         2.383275
 C        -2.629584         1.213991         2.353257
 C        -2.000277        -0.065728         1.571463
 H         0.562681        -0.641067         0.881203
 H        -0.979792         2.619528        -0.029682
 H        -1.746060         1.353255        -0.757726
 H        -3.570470         2.655367         0.762761
 H        -1.263369         2.306517         3.975576
 H         0.469803         2.210853         2.181885
 H         0.129798         0.790776         3.173786
 H        -3.505224         0.931997         2.979699
 H        -1.849963        -0.948161         2.260333
 H        -2.563492        -0.428052         0.650967
