19
Iteration:  2728charge 0 multiplicity 1
 O         0.258079         0.032126         0.303817
 C        -0.828483         0.709734         1.046159
 C        -1.708650         1.780970         0.265111
 C        -2.629692         2.411672         1.242141
 O        -1.908389         3.154030         2.119280
 C        -1.498248         2.011357         2.872490
 C        -0.263873         1.367401         2.330268
 C        -2.678288         1.155813         2.353568
 C        -1.975335        -0.087367         1.791430
 H         0.293231         0.395742        -0.578896
 H        -0.957931         2.406818        -0.087610
 H        -2.330844         1.378735        -0.609199
 H        -3.455699         2.959054         0.935331
 H        -1.407934         2.294099         3.901684
 H         0.437656         2.143095         1.920197
 H         0.076449         0.693115         3.064029
 H        -3.577895         1.272236         3.023722
 H        -1.448289        -0.587031         2.584294
 H        -2.654696        -0.852200         1.387982
