19
Iteration:  2440charge 0 multiplicity 1
 O         0.241549        -0.075626         0.372018
 C        -0.805679         0.731687         0.994746
 C        -1.651418         1.750541         0.192705
 C        -2.732068         2.318751         1.289392
 O        -2.002212         3.212418         2.148311
 C        -1.476718         2.015651         2.936101
 C        -0.159371         1.527617         2.218686
 C        -2.667673         1.165123         2.350709
 C        -1.919679        -0.035961         1.826812
 H        -0.306103        -0.585900        -0.272941
 H        -1.031195         2.676995        -0.177371
 H        -2.182860         1.434991        -0.730917
 H        -3.588375         2.774656         0.895121
 H        -1.421290         2.273050         4.070045
 H         0.426753         2.385611         1.864028
 H         0.393176         0.930771         2.893824
 H        -3.494647         1.003296         2.953353
 H        -1.512303        -0.877874         2.437597
 H        -2.582712        -0.603911         1.161895
