19
Iteration:  2715charge 0 multiplicity 1
 O         0.223446        -0.012810         0.311952
 C        -0.820519         0.704817         1.016568
 C        -1.655952         1.814307         0.133068
 C        -2.664804         2.274899         1.246907
 O        -1.860601         3.172463         2.159063
 C        -1.526244         2.045982         3.012461
 C        -0.260510         1.422718         2.303905
 C        -2.667196         1.193529         2.344804
 C        -1.994854        -0.058484         1.810939
 H         0.092004         0.177622        -0.648769
 H        -1.231955         2.754359        -0.125787
 H        -2.072438         1.372697        -0.794119
 H        -3.519046         2.689107         0.863080
 H        -1.473375         2.331271         4.102048
 H         0.453773         2.303313         2.184961
 H         0.427701         0.725930         2.884944
 H        -3.565630         0.856176         2.933951
 H        -1.663136        -0.613680         2.675467
 H        -2.593169        -0.646680         1.092592
