19
Iteration:  1085charge 0 multiplicity 1
 O         0.217023         0.085256         0.425116
 C        -0.814505         0.723294         1.074933
 C        -1.628159         1.715179         0.198880
 C        -2.667650         2.227727         1.241998
 O        -1.943364         3.180203         2.066336
 C        -1.499538         2.094830         2.953485
 C        -0.233725         1.415353         2.371278
 C        -2.610484         1.149476         2.391889
 C        -2.002139        -0.047682         1.617473
 H        -0.040502         0.203271        -0.519180
 H        -0.910894         2.469932        -0.211533
 H        -2.210625         1.094442        -0.545434
 H        -3.603367         2.773103         0.938839
 H        -1.529636         2.430578         4.036766
 H         0.528207         2.136883         2.131871
 H         0.105459         0.617129         2.890484
 H        -3.432993         1.082097         3.214115
 H        -1.621466        -0.787509         2.306026
 H        -2.609100        -0.324233         0.825035
