19
Iteration:   324charge 0 multiplicity 1
 O         0.147172        -0.028270         0.253640
 C        -0.800618         0.764488         1.026020
 C        -1.496381         1.947504         0.233725
 C        -2.602877         2.355355         1.205029
 O        -2.029448         3.159529         2.224766
 C        -1.543778         2.059227         2.957595
 C        -0.237782         1.400846         2.325979
 C        -2.662425         1.100472         2.334108
 C        -1.985269        -0.137153         1.689764
 H         0.504876        -0.631616         0.954966
 H        -0.774314         2.852667         0.072733
 H        -1.750217         1.623479        -0.810295
 H        -3.577034         2.692871         0.803641
 H        -1.269955         2.381045         3.961099
 H         0.502505         2.202600         2.141822
 H        -0.062665         0.630558         3.114703
 H        -3.592051         1.081708         2.813576
 H        -1.818655        -0.982326         2.363688
 H        -2.526355        -0.557991         0.784196
