19
Iteration:   241charge 0 multiplicity 1
 O         0.154054        -0.064432         0.290371
 C        -0.810422         0.718943         0.989807
 C        -1.483220         1.973033         0.202907
 C        -2.628117         2.346563         1.225027
 O        -2.063430         3.209687         2.262663
 C        -1.503018         2.030686         2.929228
 C        -0.272812         1.346537         2.299141
 C        -2.646976         1.123902         2.271767
 C        -1.980423        -0.045268         1.708972
 H         0.824832        -0.261615         0.949709
 H        -0.795415         2.792474         0.028808
 H        -1.921885         1.542067        -0.768388
 H        -3.583511         2.662452         0.813143
 H        -1.447954         2.104335         4.041531
 H         0.701164         1.886792         2.110235
 H        -0.087093         0.581931         3.128787
 H        -3.561425         1.029014         2.938993
 H        -1.537225        -0.674073         2.500393
 H        -2.574561        -0.636131         1.004583
