19
Iteration:   859charge 0 multiplicity 1
 O         0.105550        -0.053005         0.238686
 C        -0.788328         0.742951         1.067240
 C        -1.473596         1.722003         0.184103
 C        -2.523587         2.315933         1.250652
 O        -2.095127         3.183239         2.295317
 C        -1.528285         2.051577         2.990110
 C        -0.238062         1.592514         2.227968
 C        -2.678752         1.198343         2.281409
 C        -1.941799        -0.105834         1.716768
 H         0.494543        -0.582767         0.945666
 H        -0.753647         2.405683        -0.359523
 H        -2.160021         1.301695        -0.620127
 H        -3.417785         2.699220         0.744360
 H        -1.593669         2.035909         4.060607
 H         0.349888         2.462452         1.986476
 H         0.340305         0.963023         2.883750
 H        -3.575142         1.217047         2.909816
 H        -1.660824        -0.843090         2.483109
 H        -2.551819        -0.668640         0.926604
