19
Iteration:  2077
 O         0.089404         0.066655         0.215382
 C        -0.779596         0.768313         1.064759
 C        -1.744733         1.619039         0.205388
 C        -2.748701         2.210782         1.213953
 O        -1.985519         3.239035         2.016424
 C        -1.519526         2.144972         2.910215
 C        -0.151881         1.518651         2.290480
 C        -2.541562         1.149878         2.450005
 C        -1.780853        -0.077000         1.909557
 H         0.247396        -0.813738         0.608226
 H        -1.241738         2.451211        -0.175518
 H        -2.289424         1.116464        -0.586668
 H        -3.756935         2.541056         0.963318
 H        -1.505546         2.587351         3.941197
 H         0.590043         2.323125         2.249843
 H         0.314408         0.750659         3.028656
 H        -3.500687         0.747754         3.011790
 H        -1.320418        -0.737906         2.680020
 H        -2.423399        -0.581627         1.150821
