19
Iteration:  2940
 O         0.198389        -0.179230         0.304561
 C        -0.788491         0.753052         0.956543
 C        -1.635715         1.914120         0.125145
 C        -2.675102         2.290763         1.268352
 O        -2.018512         3.244202         2.264101
 C        -1.504625         2.059528         2.966691
 C        -0.251179         1.537927         2.198424
 C        -2.585648         1.138023         2.390356
 C        -1.894959        -0.093695         1.765167
 H        -0.236362        -1.015003         0.521603
 H        -1.097836         2.943374        -0.196706
 H        -2.194660         1.448294        -0.696339
 H        -3.682794         2.728020         0.866459
 H        -1.334697         2.302596         4.031946
 H         0.315373         2.377511         1.971447
 H         0.114608         0.763559         2.833890
 H        -3.430280         0.974189         3.074376
 H        -1.381435        -0.751782         2.556361
 H        -2.343851        -0.724143         1.014411
