19
Iteration:  1690charge 0 multiplicity 1
 O         0.197960         0.047154         0.244281
 C        -0.820399         0.654208         1.080392
 C        -1.569286         1.710611         0.202552
 C        -2.613498         2.220380         1.239610
 O        -1.976731         3.138720         2.136214
 C        -1.488225         2.125232         2.892511
 C        -0.260322         1.568331         2.218718
 C        -2.647634         1.145183         2.435462
 C        -2.048172        -0.096870         1.861985
 H         1.025782         0.092341         0.772414
 H        -0.847881         2.568932        -0.233932
 H        -2.223626         1.308558        -0.626155
 H        -3.591592         2.691211         0.880705
 H        -1.387326         2.443019         3.967869
 H         0.082213         2.437316         1.659653
 H         0.487565         1.142227         2.885785
 H        -3.578166         1.078772         3.054183
 H        -1.890861        -1.015077         2.465960
 H        -2.672008        -0.370984         1.033047
