19
Iteration:  4936
 O         0.164938         0.004628         0.333190
 C        -0.804989         0.839557         1.022797
 C        -1.641214         1.700152         0.139985
 C        -2.657806         2.287401         1.293783
 O        -1.913476         3.179370         2.214890
 C        -1.454677         1.954564         2.990666
 C        -0.251835         1.494726         2.281354
 C        -2.647209         1.152544         2.426804
 C        -1.989978        -0.012713         1.684640
 H        -0.036488         0.136704        -0.599334
 H        -1.051504         2.520451        -0.331985
 H        -2.079015         1.048221        -0.659693
 H        -3.593379         2.782905         0.934808
 H        -1.362046         2.297467         4.026972
 H         0.565125         2.242165         2.058660
 H         0.336285         0.681091         2.695134
 H        -3.559011         0.890116         2.940520
 H        -1.527007        -0.827363         2.310703
 H        -2.766716        -0.428049         0.910392
