19
Iteration:  4113
 O         0.061322        -0.126916         0.246738
 C        -0.785009         0.721039         1.048898
 C        -1.505595         1.873768         0.258803
 C        -2.593349         2.334115         1.225289
 O        -2.121670         3.192418         2.307231
 C        -1.487979         1.983855         2.964989
 C        -0.183495         1.410324         2.268907
 C        -2.619499         1.186486         2.278056
 C        -1.951637        -0.008766         1.749332
 H         0.248273         0.299806        -0.610428
 H        -0.864212         2.609355        -0.104874
 H        -2.093677         1.386810        -0.605337
 H        -3.530579         2.813091         0.929173
 H        -1.238710         2.118544         3.964850
 H         0.438356         2.384328         2.056254
 H         0.544164         0.707518         2.798447
 H        -3.467125         0.941220         2.888040
 H        -1.523104        -0.578936         2.526362
 H        -2.464447        -0.465095         0.895420
