19
Iteration:  1569
 O         0.215831         0.032388         0.356784
 C        -0.795434         0.838852         1.027901
 C        -1.669543         1.759390         0.186370
 C        -2.693671         2.259208         1.256275
 O        -1.905113         3.181959         2.080392
 C        -1.545351         2.053745         2.942107
 C        -0.310146         1.439641         2.332166
 C        -2.658228         1.125751         2.359225
 C        -1.860560        -0.048907         1.758905
 H        -0.283494        -0.733537        -0.012640
 H        -1.035192         2.563875        -0.393254
 H        -2.186306         1.175215        -0.581982
 H        -3.432272         2.886542         0.659098
 H        -1.481309         2.322459         4.035748
 H         0.446225         2.295181         2.216183
 H         0.074851         0.613631         3.008190
 H        -3.475900         0.943396         3.094052
 H        -1.364031        -0.547071         2.590675
 H        -2.261365        -0.794158         1.157403
