19
Iteration:  4815
 O         0.207859         0.167817         0.357927
 C        -0.882211         0.715689         1.056996
 C        -1.609643         1.755163         0.138015
 C        -2.662632         2.283216         1.255431
 O        -1.910885         3.184187         2.188565
 C        -1.477502         2.033609         2.943535
 C        -0.221980         1.363266         2.250202
 C        -2.633807         1.089092         2.397459
 C        -2.022322        -0.053276         1.734641
 H        -0.139081        -0.055024        -0.524313
 H        -0.851498         2.605732        -0.127588
 H        -2.102035         1.334460        -0.769539
 H        -3.667104         2.688624         1.028973
 H        -1.402742         2.082922         4.036236
 H         0.589839         2.074895         1.988234
 H         0.361328         0.637841         2.857899
 H        -3.460688         1.208389         3.039373
 H        -1.561230        -0.707142         2.503817
 H        -2.819549        -0.459399         1.037937
