19
Iteration:  3155charge 0 multiplicity 1
 O         0.171808         0.030866         0.190185
 C        -0.827643         0.726985         1.018699
 C        -1.625621         1.733717         0.185079
 C        -2.695019         2.223045         1.282992
 O        -1.968416         3.165550         2.174771
 C        -1.478996         2.092307         2.916054
 C        -0.208457         1.488812         2.290852
 C        -2.601821         1.224939         2.390744
 C        -1.977015        -0.073740         1.814177
 H         0.355457        -0.819422         0.660102
 H        -1.072306         2.592972        -0.080747
 H        -2.341463         1.292465        -0.646524
 H        -3.524163         2.683078         0.833567
 H        -1.296890         2.330944         3.981124
 H         0.522595         2.353100         1.987920
 H         0.340841         0.799574         2.983727
 H        -3.555386         1.194029         3.013329
 H        -1.580181        -0.635953         2.684911
 H        -2.554059        -0.642228         1.077639
