19
Iteration:  1325
 O         0.211357         0.129162         0.396168
 C        -0.772252         0.776434         1.169241
 C        -1.667944         1.717933         0.178064
 C        -2.617979         2.255227         1.183998
 O        -1.838856         3.147172         2.122586
 C        -1.590023         1.952869         2.966394
 C        -0.230932         1.522428         2.337235
 C        -2.689209         1.186992         2.318238
 C        -2.002364        -0.081063         1.693785
 H        -0.177570        -0.588131        -0.128395
 H        -1.174618         2.453704        -0.418376
 H        -2.160918         1.046793        -0.469176
 H        -3.439413         2.845732         0.841108
 H        -1.488470         2.273053         3.976677
 H         0.458291         2.371623         2.051795
 H         0.468996         0.854631         3.019774
 H        -3.696101         1.140796         2.819415
 H        -1.747884        -1.039546         2.119471
 H        -2.571738        -0.462849         0.856831
