19
Iteration:  4335
 O         0.139545        -0.036078         0.251245
 C        -0.807971         0.781049         1.072850
 C        -1.566786         1.813112         0.200962
 C        -2.650430         2.236033         1.268756
 O        -2.078402         3.189354         2.237222
 C        -1.369447         2.074253         2.933590
 C        -0.259768         1.409780         2.274613
 C        -2.596136         1.134995         2.364601
 C        -1.992152        -0.040873         1.747200
 H         0.049339         0.416805        -0.618249
 H        -0.801252         2.565983        -0.097420
 H        -2.081103         1.471529        -0.663670
 H        -3.524900         2.641360         0.851041
 H        -1.492681         2.283641         4.001538
 H         0.578221         2.205734         1.998068
 H         0.115765         0.517260         2.900482
 H        -3.213841         1.137897         3.247499
 H        -1.500627        -0.819210         2.319347
 H        -2.624681        -0.495711         1.025164
