19
Iteration:  1275charge 0 multiplicity 1
 O         0.213548        -0.096189         0.391036
 C        -0.850976         0.639687         0.987083
 C        -1.461015         1.874272         0.188977
 C        -2.592468         2.273770         1.236916
 O        -2.187035         3.258988         2.208638
 C        -1.474154         2.116964         2.907889
 C        -0.302600         1.423212         2.257008
 C        -2.593589         1.122161         2.391634
 C        -1.964261        -0.029492         1.755541
 H         0.280326        -0.065340        -0.572743
 H        -0.613143         2.657479         0.087306
 H        -1.918118         1.588203        -0.886672
 H        -3.518079         2.645570         0.702133
 H        -1.413930         2.516690         3.964209
 H         0.482662         2.123223         2.002327
 H         0.167745         0.728419         2.845790
 H        -3.391327         0.891140         3.017978
 H        -1.507020        -0.716628         2.509230
 H        -2.558405        -0.740320         1.167750
