19
Iteration:  2268
 O         0.119991        -0.071043         0.203378
 C        -0.703211         0.675176         1.113697
 C        -1.679991         1.713683         0.231977
 C        -2.705485         2.232973         1.267785
 O        -2.035972         3.195520         2.138082
 C        -1.463694         2.126519         2.879127
 C        -0.185880         1.638161         2.186948
 C        -2.631556         1.166895         2.414769
 C        -1.947274        -0.119935         1.859842
 H         0.858635        -0.353310         0.761293
 H        -1.129975         2.637159        -0.102136
 H        -2.113232         1.293069        -0.632820
 H        -3.728935         2.472145         0.964108
 H        -1.329230         2.430184         3.927685
 H         0.404000         2.556929         1.775088
 H         0.603502         1.264973         2.861512
 H        -3.508546         1.200294         3.003455
 H        -1.528741        -0.819477         2.589588
 H        -2.499796        -0.598908         1.058332
