19
Iteration:   231
 O         0.121401        -0.104080         0.234979
 C        -0.809299         0.708763         1.025862
 C        -1.441164         1.899351         0.270064
 C        -2.533531         2.336553         1.255338
 O        -2.142784         3.187789         2.299164
 C        -1.531131         2.044762         2.909100
 C        -0.192439         1.403892         2.325743
 C        -2.708421         1.170622         2.275484
 C        -1.994629        -0.054792         1.642536
 H         0.941204        -0.042887         0.760793
 H        -0.799358         2.721487         0.031453
 H        -1.941685         1.571990        -0.761408
 H        -3.256012         2.921930         0.697316
 H        -1.391467         2.458436         3.933972
 H         0.582157         2.169905         2.070751
 H         0.158310         0.485628         2.850677
 H        -3.699728         0.964067         2.830306
 H        -1.651159        -0.568632         2.570135
 H        -2.510266        -0.853554         1.142800
