19
Iteration:  3730
 O         0.033773        -0.076960         0.235531
 C        -0.798921         0.740994         1.022417
 C        -1.614639         1.815397         0.273728
 C        -2.617691         2.239906         1.293659
 O        -1.951314         3.217096         2.211348
 C        -1.495294         2.065643         2.903279
 C        -0.257084         1.598316         2.225951
 C        -2.661492         1.156059         2.365467
 C        -1.852873        -0.104057         1.700847
 H         0.454045        -0.658034         0.896399
 H        -0.965765         2.653165        -0.003951
 H        -2.079493         1.344648        -0.606028
 H        -3.516716         2.679511         0.807861
 H        -1.304490         2.140558         3.953405
 H         0.466234         2.445910         2.040214
 H         0.406151         0.935447         2.919074
 H        -3.590647         0.957379         3.002911
 H        -1.519869        -0.868169         2.514211
 H        -2.524569        -0.734740         1.020057
