19
Iteration:   947
 O         0.186720         0.060368         0.244794
 C        -0.658761         0.695858         1.107150
 C        -1.607932         1.608462         0.294702
 C        -2.616604         2.288217         1.249198
 O        -1.914323         3.221950         2.174719
 C        -1.544794         2.059220         2.924415
 C        -0.237066         1.512048         2.370372
 C        -2.745973         1.132509         2.279313
 C        -2.033508        -0.085392         1.743937
 H         0.421009         0.660766        -0.475438
 H        -1.182808         2.260895        -0.481436
 H        -2.173935         1.082652        -0.434766
 H        -3.315613         2.960631         0.723357
 H        -1.598911         2.162429         4.013415
 H         0.173013         2.364970         1.834082
 H         0.270463         0.904983         3.144490
 H        -3.529471         0.979808         3.020147
 H        -1.789142        -0.743600         2.572311
 H        -2.717268        -0.404035         0.872947
