19
Iteration:  1621
 O         0.187277        -0.036191         0.426224
 C        -0.791914         0.671307         1.088450
 C        -1.622745         1.731685         0.266518
 C        -2.694765         2.181935         1.286022
 O        -1.970013         3.210821         2.150563
 C        -1.525000         2.092968         2.865492
 C        -0.188706         1.561097         2.191860
 C        -2.629738         1.162973         2.368063
 C        -1.968159        -0.035396         1.714585
 H         0.313752         0.232525        -0.509544
 H        -0.859530         2.555728         0.014166
 H        -2.023729         1.280636        -0.651796
 H        -3.666253         2.483805         0.924908
 H        -1.309926         2.328040         3.924934
 H         0.438652         2.425116         1.855430
 H         0.304513         1.054620         2.946110
 H        -3.604730         1.028012         2.818846
 H        -1.816095        -0.958344         2.349030
 H        -2.625497        -0.345975         0.861909
