19
Iteration:  4784charge 0 multiplicity 1
 O         0.105130        -0.134405         0.204940
 C        -0.710007         0.702361         1.048065
 C        -1.618745         1.819269         0.243873
 C        -2.687232         2.316919         1.321420
 O        -1.995853         3.266782         2.200492
 C        -1.532822         2.072837         2.974324
 C        -0.158874         1.485897         2.363361
 C        -2.623639         1.088995         2.331549
 C        -1.926135        -0.028911         1.673730
 H        -0.140704         0.205699        -0.680415
 H        -0.924665         2.586397        -0.104195
 H        -1.937364         1.395447        -0.747278
 H        -3.613363         2.633032         1.017105
 H        -1.631672         1.987530         4.073175
 H         0.425271         2.432519         2.109005
 H         0.226667         0.835306         3.202332
 H        -3.490279         1.013057         3.004408
 H        -1.519382        -0.812410         2.303560
 H        -2.478379        -0.603661         0.987023
