19
Iteration:  2998charge 0 multiplicity 1
 O         0.231552         0.156278         0.257471
 C        -0.874715         0.695319         1.023837
 C        -1.665182         1.636377         0.223022
 C        -2.621691         2.230133         1.316941
 O        -1.838322         3.186967         2.078759
 C        -1.521465         2.032278         2.991129
 C        -0.257549         1.470608         2.302762
 C        -2.664449         1.195719         2.375475
 C        -2.021525        -0.050561         1.812419
 H        -0.027237        -0.161605        -0.622618
 H        -1.035482         2.464552        -0.167680
 H        -2.246983         1.172319        -0.635563
 H        -3.548447         2.683210         0.836801
 H        -1.432939         2.379626         4.069131
 H         0.507266         2.220571         2.183181
 H         0.318964         0.816054         2.899478
 H        -3.475726         0.988569         3.062448
 H        -1.704404        -0.731938         2.621348
 H        -2.547692        -0.556483         0.952999
