19
Iteration:  3733
 O         0.031274        -0.048871         0.252782
 C        -0.798236         0.743054         1.024376
 C        -1.636126         1.809215         0.281104
 C        -2.621454         2.234610         1.258794
 O        -1.948444         3.243714         2.218140
 C        -1.493588         2.057871         2.897088
 C        -0.219038         1.553221         2.224451
 C        -2.647036         1.138259         2.338849
 C        -1.862327        -0.118981         1.701467
 H         0.371616        -0.620020         0.956265
 H        -1.067438         2.606194        -0.096680
 H        -2.154289         1.359948        -0.612624
 H        -3.540711         2.697636         0.911061
 H        -1.365864         2.194217         4.024825
 H         0.492268         2.456250         2.093600
 H         0.424221         0.965677         3.007731
 H        -3.539050         1.009708         3.041763
 H        -1.531917        -0.800236         2.475231
 H        -2.510418        -0.709949         1.066986
