19
Iteration:  3722
 O         0.057782        -0.141761         0.186385
 C        -0.806137         0.746541         1.035956
 C        -1.517222         1.809566         0.233070
 C        -2.637857         2.290648         1.348772
 O        -1.991931         3.166665         2.190001
 C        -1.507299         2.060355         2.961884
 C        -0.285847         1.645725         2.214629
 C        -2.642253         1.145662         2.415439
 C        -1.905251        -0.050963         1.746428
 H         0.678046        -0.725933         0.636496
 H        -0.895172         2.626149         0.096646
 H        -1.945382         1.396488        -0.729990
 H        -3.479033         2.636834         0.773728
 H        -1.306363         2.249728         4.076799
 H         0.317280         2.502249         1.730858
 H         0.294625         0.825208         2.771230
 H        -3.659920         0.914533         2.895499
 H        -1.450595        -0.747328         2.429339
 H        -2.418828        -0.565109         0.946880
