19
Iteration:   478charge 0 multiplicity 1
 O         0.082469        -0.216745         0.337021
 C        -0.758979         0.720362         1.043415
 C        -1.511152         1.929081         0.239815
 C        -2.527374         2.407512         1.146201
 O        -1.996398         3.202924         2.387032
 C        -1.683154         1.967450         2.974419
 C        -0.178652         1.527555         2.277752
 C        -2.747662         1.112639         2.192861
 C        -1.945908        -0.082632         1.687336
 H         0.857661         0.339754         0.219897
 H        -0.723299         2.686110        -0.174042
 H        -2.016143         1.602428        -0.701056
 H        -3.356960         3.052712         0.901127
 H        -1.561653         1.915596         4.053684
 H         0.289092         2.428621         1.904967
 H         0.578565         0.883954         2.711051
 H        -3.790950         0.954348         2.607635
 H        -1.467517        -0.675808         2.413425
 H        -2.387211        -0.678893         0.871601
