19
Iteration:  1082charge 0 multiplicity 1
 O         0.217852         0.078027         0.416694
 C        -0.800069         0.737177         1.100090
 C        -1.673549         1.728499         0.205129
 C        -2.682522         2.239238         1.211673
 O        -1.934265         3.183809         2.054761
 C        -1.504101         2.086292         2.943268
 C        -0.230054         1.388453         2.364847
 C        -2.636509         1.154145         2.407527
 C        -1.970294        -0.047917         1.634182
 H         0.097649         0.189583        -0.549452
 H        -1.044379         2.534919        -0.095128
 H        -2.194622         1.156058        -0.572512
 H        -3.474933         2.843722         0.926138
 H        -1.476962         2.427247         3.976343
 H         0.528937         2.159440         2.257761
 H         0.128596         0.506087         2.941283
 H        -3.382969         1.077486         3.207385
 H        -1.604652        -0.786309         2.332678
 H        -2.571792        -0.446899         0.759953
