19
Iteration:  3265
 O         0.127509         0.097229         0.145833
 C        -0.773024         0.796656         1.139326
 C        -1.696118         1.659225         0.229586
 C        -2.722321         2.289659         1.254283
 O        -1.878483         3.138284         2.072372
 C        -1.460845         2.020003         2.954774
 C        -0.177070         1.444762         2.376486
 C        -2.647513         1.216455         2.421333
 C        -1.963439        -0.034381         1.717022
 H         0.562273        -0.610634         0.633798
 H        -1.318838         2.475955        -0.321751
 H        -2.215687         1.071171        -0.591149
 H        -3.561620         2.812721         0.890194
 H        -1.537902         2.378106         3.986525
 H         0.434523         2.334783         2.080751
 H         0.282973         0.744110         3.075258
 H        -3.512542         0.965575         3.107083
 H        -1.676359        -0.704999         2.570149
 H        -2.579817        -0.656586         1.079377
