19
Iteration:  1578
 O         0.263022         0.073873         0.323729
 C        -0.805835         0.759520         1.074715
 C        -1.661517         1.665028         0.171773
 C        -2.634147         2.273255         1.211263
 O        -1.913957         3.204439         2.169086
 C        -1.539883         2.059892         2.947668
 C        -0.383965         1.461659         2.283671
 C        -2.622209         1.171097         2.298054
 C        -1.885284        -0.024711         1.829415
 H        -0.281892        -0.484323        -0.285361
 H        -1.138402         2.592680        -0.385698
 H        -2.125385         0.945256        -0.534734
 H        -3.653042         2.630573         0.936868
 H        -1.408791         2.241581         4.035669
 H         0.525677         2.106384         2.117845
 H         0.013572         0.674968         2.870193
 H        -3.581767         1.038865         2.780322
 H        -1.418815        -0.620673         2.648576
 H        -2.539759        -0.677027         1.259389
