19
Iteration:   598
 O         0.173085        -0.059954         0.313002
 C        -0.814591         0.736985         1.014442
 C        -1.488507         1.866402         0.185297
 C        -2.591666         2.340869         1.304765
 O        -2.041074         3.241578         2.253810
 C        -1.550527         1.991319         2.982981
 C        -0.200113         1.470485         2.303088
 C        -2.676981         1.105530         2.287549
 C        -1.990306        -0.056465         1.597422
 H         0.091508        -0.969885         0.698647
 H        -0.777110         2.773663         0.093078
 H        -1.654470         1.693315        -0.871341
 H        -3.522042         2.649493         0.818659
 H        -1.686059         2.279873         4.021922
 H         0.581390         2.237415         2.166405
 H         0.262006         0.576559         2.885237
 H        -3.676464         0.955479         2.813448
 H        -1.729870        -0.672321         2.437298
 H        -2.675432        -0.605674         0.885478
