19
Iteration:  1433
 O         0.229425        -0.037466         0.419867
 C        -0.788151         0.742545         1.064434
 C        -1.619785         1.786482         0.218502
 C        -2.684691         2.274802         1.198183
 O        -2.027778         3.237432         2.220407
 C        -1.490639         2.105816         2.924842
 C        -0.254398         1.331547         2.272878
 C        -2.687507         1.213571         2.263059
 C        -1.925622        -0.107923         1.740657
 H         0.632360         0.355832        -0.363377
 H        -0.916863         2.512715        -0.149972
 H        -2.303649         1.234604        -0.625435
 H        -3.462978         2.733333         0.717105
 H        -1.352836         2.471390         3.920207
 H         0.494915         2.066603         1.979852
 H         0.273251         0.581743         2.869977
 H        -3.642309         1.190768         2.846855
 H        -1.441683        -0.608842         2.555831
 H        -2.526465        -0.621056         0.948182
