19
Iteration:  3971
 O         0.152023        -0.099023         0.351249
 C        -0.777915         0.750305         1.018923
 C        -1.632516         1.867517         0.187044
 C        -2.611515         2.352962         1.329544
 O        -2.053412         3.228092         2.309633
 C        -1.401987         2.019377         2.927702
 C        -0.237362         1.504781         2.205740
 C        -2.609239         1.132688         2.305812
 C        -1.950846        -0.082219         1.630519
 H        -0.313426        -0.925620         0.142200
 H        -1.209297         2.800708        -0.125037
 H        -2.262960         1.494429        -0.717902
 H        -3.561778         2.749138         0.982878
 H        -1.324625         2.073931         3.994699
 H         0.655447         2.138526         1.996296
 H         0.206373         0.865290         2.931804
 H        -3.445324         0.887388         2.921948
 H        -1.530449        -0.889759         2.357462
 H        -2.558394        -0.517751         0.808507
