19
Iteration:  4660charge 0 multiplicity 1
 O         0.145163         0.029128         0.126798
 C        -0.737038         0.673273         1.104907
 C        -1.611853         1.753227         0.243281
 C        -2.681047         2.300259         1.258863
 O        -1.931668         3.219367         2.235593
 C        -1.576804         2.003750         2.950867
 C        -0.187650         1.534062         2.234205
 C        -2.642008         1.185927         2.433463
 C        -1.968181        -0.098666         1.765047
 H         0.310135        -0.935215         0.236551
 H        -1.119041         2.799077         0.030295
 H        -2.093263         1.451297        -0.708242
 H        -3.593708         2.774075         0.750391
 H        -1.517449         2.067531         4.019434
 H         0.292706         2.434226         1.826561
 H         0.339718         0.859130         3.003262
 H        -3.575823         1.145829         2.969091
 H        -1.559030        -0.871494         2.419300
 H        -2.469232        -0.637164         0.892420
