19
Iteration:  4559charge 0 multiplicity 1
 O         0.086865         0.142539         0.144905
 C        -0.801108         0.773845         1.036898
 C        -1.693654         1.757056         0.168711
 C        -2.581577         2.249580         1.294768
 O        -1.933698         3.170517         2.180579
 C        -1.473310         2.058642         3.001287
 C        -0.226621         1.388609         2.359836
 C        -2.643865         1.182393         2.338978
 C        -1.959193        -0.072038         1.748296
 H         0.692291        -0.402818         0.669006
 H        -1.032872         2.410212        -0.299994
 H        -2.213790         1.072998        -0.553092
 H        -3.515515         2.641460         0.764954
 H        -1.631309         2.220816         4.035459
 H         0.640991         1.898157         2.136405
 H         0.228831         0.672059         3.109075
 H        -3.551064         1.093603         3.016856
 H        -1.376540        -0.623555         2.465696
 H        -2.569335        -0.756631         1.179321
