19
Iteration:   638charge 0 multiplicity 1
 O         0.174842        -0.042518         0.342475
 C        -0.767921         0.734473         1.076172
 C        -1.481411         1.833652         0.254937
 C        -2.629692         2.315760         1.237774
 O        -2.078294         3.257952         2.196931
 C        -1.500940         2.028974         2.978694
 C        -0.160402         1.409864         2.366484
 C        -2.688995         1.139052         2.249243
 C        -2.029034        -0.071312         1.615610
 H        -0.324976        -0.353767        -0.424034
 H        -0.669822         2.546596         0.108155
 H        -1.990341         1.596015        -0.685177
 H        -3.627420         2.737613         0.870974
 H        -1.299044         2.077913         4.066201
 H         0.546381         2.181547         2.097633
 H         0.176399         0.696288         3.106031
 H        -3.562333         0.930767         2.889841
 H        -1.603247        -0.759140         2.412900
 H        -2.516219        -0.502078         0.709580
