19
Iteration:  3517
 O         0.138802         0.193464         0.262693
 C        -0.871239         0.742499         1.040436
 C        -1.726146         1.701259         0.198565
 C        -2.654958         2.288735         1.246267
 O        -1.842348         3.159697         2.110872
 C        -1.461558         2.111347         2.930094
 C        -0.220669         1.408476         2.327663
 C        -2.652146         1.174503         2.380459
 C        -1.996258        -0.156924         1.767279
 H         0.665504        -0.549022         0.587640
 H        -1.105820         2.487100        -0.206757
 H        -2.201878         1.118768        -0.585563
 H        -3.522437         2.868917         0.914456
 H        -1.421127         2.299808         4.029646
 H         0.635917         2.136748         2.254025
 H         0.223297         0.599216         2.959529
 H        -3.411126         1.095848         3.166049
 H        -1.459436        -0.957770         2.334679
 H        -2.579007        -0.697343         0.998039
