19
Iteration:  4477charge 0 multiplicity 1
 O         0.092364        -0.033252         0.148650
 C        -0.734457         0.726426         1.017026
 C        -1.664646         1.819538         0.288941
 C        -2.648560         2.325295         1.260998
 O        -1.984559         3.282972         2.253909
 C        -1.532513         2.050956         3.005762
 C        -0.152845         1.502154         2.306203
 C        -2.675534         1.110951         2.290841
 C        -1.883402        -0.150035         1.713006
 H         0.152831        -0.949598         0.474109
 H        -0.944078         2.598873        -0.150849
 H        -2.091410         1.376969        -0.597835
 H        -3.527690         2.626088         0.749339
 H        -1.427036         2.314000         4.135365
 H         0.308712         2.545617         2.110117
 H         0.352290         0.834508         2.877941
 H        -3.617116         0.955901         2.758899
 H        -1.376214        -0.702089         2.587148
 H        -2.479655        -0.931045         1.142437
