19
Iteration:  3653
 O         0.176425         0.149136         0.216680
 C        -0.817587         0.784512         1.051448
 C        -1.789982         1.753289         0.135960
 C        -2.563415         2.170896         1.258648
 O        -1.812445         3.118491         2.064174
 C        -1.486164         1.998942         3.042184
 C        -0.252168         1.514891         2.290434
 C        -2.618143         1.213309         2.369496
 C        -2.058350        -0.074620         1.800430
 H         0.517486        -0.465776         0.876724
 H        -1.156684         2.587358        -0.149880
 H        -2.254037         1.137244        -0.565607
 H        -3.598814         2.514854         1.128820
 H        -1.487383         2.127865         4.076724
 H         0.488260         2.313665         2.246219
 H         0.241020         0.666920         2.964566
 H        -3.481306         1.236179         3.011837
 H        -1.696893        -0.865912         2.560335
 H        -2.785796        -0.580634         1.084479
