19
Iteration:  2008charge 0 multiplicity 1
 O         0.141109        -0.078323         0.311046
 C        -0.791836         0.747733         0.980350
 C        -1.721318         1.703107         0.134397
 C        -2.637551         2.210914         1.239666
 O        -2.119047         3.275880         2.201344
 C        -1.465372         2.132289         2.913788
 C        -0.128303         1.531076         2.165701
 C        -2.624210         1.138204         2.399634
 C        -1.867021        -0.077302         1.905309
 H         1.043631         0.115823         0.650033
 H        -1.148784         2.303274        -0.507442
 H        -2.357443         1.058960        -0.476060
 H        -3.613234         2.559371         0.791116
 H        -1.373968         2.438879         3.930021
 H         0.549977         2.352668         1.985400
 H         0.526104         0.732139         2.710192
 H        -3.545959         1.159227         2.911741
 H        -1.371419        -0.634244         2.705895
 H        -2.668668        -0.597620         1.357487
