19
Iteration:  1500charge 0 multiplicity 1
 O         0.138943        -0.038848         0.281456
 C        -0.774215         0.665896         1.041122
 C        -1.588391         1.794776         0.182834
 C        -2.629764         2.315248         1.168646
 O        -2.032872         3.225134         2.273293
 C        -1.531411         2.045722         2.907758
 C        -0.266117         1.507872         2.306517
 C        -2.636148         1.217275         2.228148
 C        -1.893613        -0.127974         1.785362
 H         0.680436        -0.411240         1.013996
 H        -1.064241         2.716677        -0.248810
 H        -2.144561         1.270750        -0.687776
 H        -3.570555         2.610267         0.805652
 H        -1.517160         2.207967         3.977633
 H         0.387478         2.354621         2.069731
 H         0.229437         0.760380         2.881754
 H        -3.388462         1.191092         2.974486
 H        -1.573491        -0.476585         2.783114
 H        -2.330617        -0.947327         1.227808
