19
Iteration:  3950charge 0 multiplicity 1
 O         0.174197        -0.020135         0.340374
 C        -0.857827         0.696396         0.987532
 C        -1.557418         1.836310         0.255129
 C        -2.635523         2.272209         1.270630
 O        -1.965736         3.250711         2.226744
 C        -1.501252         1.997655         3.009896
 C        -0.215030         1.475482         2.200515
 C        -2.635192         1.174882         2.404349
 C        -1.982312        -0.111768         1.641690
 H        -0.129019        -0.259636        -0.551488
 H        -0.884391         2.587487        -0.088495
 H        -2.142504         1.444806        -0.669767
 H        -3.534861         2.746599         0.981115
 H        -1.370072         2.158860         4.088112
 H         0.384485         2.404690         1.984066
 H         0.435539         0.799224         2.642557
 H        -3.523250         0.985963         2.951600
 H        -1.611688        -0.809934         2.487313
 H        -2.767960        -0.559236         0.996482
