19
Iteration:  3677
 O         0.075405         0.028426         0.233570
 C        -0.789146         0.716510         1.053265
 C        -1.655231         1.762403         0.227498
 C        -2.655914         2.345254         1.322914
 O        -1.969420         3.202850         2.164650
 C        -1.478984         2.114327         2.896053
 C        -0.226206         1.429882         2.246879
 C        -2.660827         1.142671         2.366772
 C        -1.884003        -0.082659         1.696885
 H         0.687874        -0.279958         0.920764
 H        -0.940728         2.378937        -0.168121
 H        -2.094285         1.020736        -0.447171
 H        -3.593328         2.774266         1.008087
 H        -1.231285         2.319953         3.945383
 H         0.601050         2.193943         2.056802
 H         0.181751         0.708984         3.021757
 H        -3.387982         0.720282         3.130190
 H        -1.650317        -0.720346         2.533698
 H        -2.497874        -0.668412         1.018210
