19
Iteration:  1827charge 0 multiplicity 1
 O         0.077219         0.033345         0.419099
 C        -0.810307         0.800839         1.061058
 C        -1.670959         1.611743         0.103229
 C        -2.663253         2.208582         1.255117
 O        -1.888125         3.179867         2.105867
 C        -1.483895         2.092580         2.915507
 C        -0.212971         1.599490         2.296777
 C        -2.575860         1.137286         2.393595
 C        -1.987057        -0.118437         1.752763
 H         0.528252         0.615318        -0.217285
 H        -1.186640         2.445603        -0.415552
 H        -2.180366         0.975961        -0.692489
 H        -3.607996         2.653505         1.029429
 H        -1.497567         2.233168         4.018608
 H         0.415350         2.525474         1.958816
 H         0.347196         0.815540         2.913270
 H        -3.420332         1.117979         3.197037
 H        -1.567394        -0.683563         2.576531
 H        -2.431481        -0.816288         1.023298
