19
Iteration:   937
 O         0.241234         0.068147         0.266145
 C        -0.792793         0.707395         1.091755
 C        -1.630054         1.645033         0.280149
 C        -2.571173         2.300743         1.220007
 O        -1.927667         3.210629         2.164920
 C        -1.528196         2.046298         2.921701
 C        -0.249584         1.505245         2.369813
 C        -2.727432         1.195712         2.313151
 C        -2.036415        -0.106827         1.714198
 H         0.115230         0.540282        -0.571323
 H        -1.058986         2.449092        -0.204010
 H        -2.210897         0.904394        -0.267168
 H        -3.389321         2.700330         0.629308
 H        -1.434546         2.149331         4.005983
 H         0.483875         2.313212         2.279050
 H         0.374335         0.926707         3.028915
 H        -3.651645         1.005855         2.834662
 H        -1.571192        -0.793249         2.412380
 H        -2.668539        -0.895417         1.152768
