19
Iteration:  4200charge 0 multiplicity 1
 O         0.116587        -0.066732         0.232161
 C        -0.834830         0.675478         0.989518
 C        -1.676065         1.815229         0.230398
 C        -2.558933         2.282800         1.290034
 O        -1.903818         3.230347         2.299750
 C        -1.574234         2.065102         3.032443
 C        -0.288567         1.489398         2.222537
 C        -2.634116         1.146155         2.324804
 C        -1.913602        -0.076103         1.635228
 H         0.990976         0.353425         0.376677
 H        -1.052541         2.548227        -0.173669
 H        -2.267890         1.349851        -0.606764
 H        -3.441779         2.884730         0.902148
 H        -1.504710         2.187741         4.085731
 H         0.462333         2.393189         2.130782
 H         0.305364         0.642962         2.740771
 H        -3.486363         1.066726         3.016071
 H        -1.610412        -0.729340         2.441795
 H        -2.465607        -0.813740         1.000420
