19
Iteration:   512
 O         0.110671        -0.060403         0.313079
 C        -0.825144         0.758919         1.087792
 C        -1.531247         1.841793         0.218914
 C        -2.596371         2.291147         1.165600
 O        -2.013041         3.237972         2.268951
 C        -1.543588         2.056977         2.962150
 C        -0.192947         1.378276         2.377694
 C        -2.622175         1.119969         2.322459
 C        -1.998903        -0.030595         1.555001
 H         1.024218         0.005993         0.627808
 H        -0.874682         2.754565        -0.050039
 H        -1.948437         1.279935        -0.640807
 H        -3.557460         2.606507         0.808931
 H        -1.547502         2.249964         4.051397
 H         0.620060         2.075446         2.171350
 H         0.232061         0.632747         3.038074
 H        -3.647185         1.087282         2.812376
 H        -1.913435        -0.968815         2.016005
 H        -2.656050        -0.280924         0.704570
