19
Iteration:   673charge 0 multiplicity 1
 O         0.169201         0.067670         0.395032
 C        -0.878079         0.737136         1.026392
 C        -1.611293         1.695183         0.117072
 C        -2.564211         2.352652         1.198255
 O        -1.817974         3.214062         2.205778
 C        -1.541259         1.934946         3.042775
 C        -0.316187         1.434856         2.330837
 C        -2.736677         1.130099         2.256261
 C        -1.949672        -0.034576         1.698690
 H         0.725090         0.685560        -0.085757
 H        -0.914306         2.395554        -0.361353
 H        -2.216769         1.335671        -0.681336
 H        -3.548842         2.840257         0.962378
 H        -1.632177         1.971696         4.126247
 H         0.352111         2.278436         2.371388
 H         0.270445         0.617652         2.851310
 H        -3.701842         1.094691         2.822097
 H        -1.624027        -0.764430         2.461722
 H        -2.583566        -0.685450         1.005193
