19
Iteration:  4397
 O         0.074691        -0.016327         0.308137
 C        -0.858074         0.781935         1.041028
 C        -1.683498         1.808184         0.109577
 C        -2.575482         2.281328         1.323929
 O        -1.964904         3.189642         2.278200
 C        -1.452418         2.013143         3.003998
 C        -0.160496         1.494034         2.204701
 C        -2.683331         1.112011         2.289589
 C        -1.903524        -0.063658         1.714182
 H         1.000996         0.118431         0.591530
 H        -1.109739         2.534137        -0.401750
 H        -2.277327         1.141901        -0.623495
 H        -3.561382         2.657904         0.888391
 H        -1.533119         2.143122         4.052515
 H         0.473806         2.325189         1.977404
 H         0.429389         0.764313         2.619757
 H        -3.649573         1.063021         2.880518
 H        -1.581852        -0.712002         2.536115
 H        -2.575719        -0.650797         0.981350
