19
Iteration:  2517
 O         0.058268        -0.062873         0.372565
 C        -0.829733         0.724889         1.092403
 C        -1.584546         1.728453         0.235329
 C        -2.617188         2.308447         1.222783
 O        -2.021290         3.255713         2.176120
 C        -1.447819         2.074535         2.937636
 C        -0.179073         1.488864         2.237653
 C        -2.660303         1.110443         2.326007
 C        -1.928808        -0.086202         1.731506
 H         0.474570         0.359411        -0.384095
 H        -0.948782         2.674194        -0.044616
 H        -2.211211         1.383193        -0.620351
 H        -3.433823         2.818250         0.820303
 H        -1.159686         2.392389         4.033729
 H         0.501261         2.329599         2.107334
 H         0.094113         0.591589         2.751536
 H        -3.561846         0.878212         2.856912
 H        -1.438916        -0.726526         2.500607
 H        -2.370907        -0.700948         0.930982
