19
Iteration:  2404charge 0 multiplicity 1
 O         0.024073        -0.102343         0.321103
 C        -0.816157         0.666058         1.094326
 C        -1.586499         1.719599         0.172025
 C        -2.637850         2.297436         1.270065
 O        -2.120873         3.228685         2.150060
 C        -1.462346         2.126186         2.917310
 C        -0.126835         1.564407         2.257500
 C        -2.548613         1.164777         2.359901
 C        -1.896517        -0.108465         1.788199
 H         0.786278         0.431179         0.000568
 H        -0.913747         2.539736        -0.059847
 H        -2.162836         1.267084        -0.688758
 H        -3.614945         2.702856         0.856826
 H        -1.467606         2.235368         3.982527
 H         0.502141         2.304651         1.907219
 H         0.436841         0.795096         2.872670
 H        -3.472002         1.077176         3.006894
 H        -1.434950        -0.918042         2.365969
 H        -2.648248        -0.340276         1.033083
