19
Iteration:  1668
 O         0.056965        -0.100154         0.259560
 C        -0.773768         0.737463         1.102073
 C        -1.609387         1.659889         0.273392
 C        -2.599640         2.240705         1.240017
 O        -2.098077         3.296711         2.181843
 C        -1.518272         2.061149         2.902014
 C        -0.139265         1.579400         2.272128
 C        -2.658301         1.191169         2.267966
 C        -1.882380        -0.072405         1.779467
 H         0.999370         0.104379         0.253209
 H        -1.024057         2.634128        -0.071008
 H        -2.104688         1.129201        -0.588325
 H        -3.570834         2.610925         0.779373
 H        -1.587765         2.113711         4.026833
 H         0.485713         2.425558         1.957627
 H         0.411990         0.841531         2.880865
 H        -3.408400         0.968637         3.050667
 H        -1.491084        -0.670557         2.603969
 H        -2.317829        -0.788431         1.121702
