19
Iteration:  3205
 O         0.045239        -0.087104         0.248327
 C        -0.790336         0.723591         1.112063
 C        -1.580803         1.799251         0.243955
 C        -2.652797         2.207680         1.276903
 O        -2.060147         3.214057         2.207445
 C        -1.475518         2.002232         2.932239
 C        -0.104597         1.610167         2.193262
 C        -2.602140         1.163115         2.317732
 C        -1.992441        -0.043278         1.768387
 H         0.910374        -0.252181         0.692224
 H        -1.044935         2.728365        -0.083085
 H        -2.052708         1.256751        -0.500405
 H        -3.638139         2.615857         0.832399
 H        -1.123795         2.101209         3.958361
 H         0.522000         2.253561         1.622549
 H         0.643984         1.074674         2.882144
 H        -3.547922         1.080614         2.780106
 H        -1.816256        -0.757763         2.552707
 H        -2.666187        -0.406297         0.960642
