19
Iteration:  4572
 O         0.027195         0.199622         0.151852
 C        -0.855506         0.679662         1.107028
 C        -1.598786         1.680039         0.229555
 C        -2.584065         2.314013         1.204693
 O        -1.933132         3.176986         2.216215
 C        -1.482107         2.009958         2.957745
 C        -0.221406         1.461283         2.317465
 C        -2.571170         1.144603         2.301361
 C        -1.955934        -0.096055         1.788560
 H         0.889094        -0.135729         0.485562
 H        -1.062281         2.472759        -0.310586
 H        -2.193542         1.144711        -0.552587
 H        -3.573358         2.796278         0.989390
 H        -1.221476         2.238110         3.950999
 H         0.454726         2.269622         2.201461
 H         0.004921         0.511224         2.956128
 H        -3.529010         0.999947         2.797769
 H        -1.844642        -0.641826         2.684763
 H        -2.629559        -0.714725         1.149702
