19
Iteration:  2508
 O         0.078330        -0.029030         0.332071
 C        -0.852214         0.747427         1.082920
 C        -1.605715         1.781108         0.274216
 C        -2.646771         2.272459         1.247814
 O        -1.977518         3.230654         2.130162
 C        -1.415506         2.041233         2.884541
 C        -0.167199         1.483547         2.242407
 C        -2.697992         1.102989         2.323664
 C        -1.978401        -0.087076         1.778515
 H         0.669115         0.681218         0.034266
 H        -0.927865         2.618255        -0.014472
 H        -1.825230         1.286421        -0.704730
 H        -3.546180         2.672977         0.768642
 H        -1.211808         2.231516         3.997182
 H         0.716026         2.185853         2.126831
 H         0.323265         0.777842         2.834377
 H        -3.700931         1.026847         2.875809
 H        -1.612615        -0.700643         2.620032
 H        -2.566104        -0.828092         1.181827
