19
Iteration:   112
 O         0.067500        -0.063390         0.224589
 C        -0.791451         0.798827         1.096023
 C        -1.492809         1.922261         0.182857
 C        -2.556288         2.370533         1.185805
 O        -1.944792         3.125493         2.255682
 C        -1.609154         1.946414         2.999132
 C        -0.187563         1.502690         2.488746
 C        -2.684743         1.170228         2.176612
 C        -1.984307        -0.093229         1.613542
 H         0.588799        -0.519029         0.961300
 H        -0.872931         2.677738        -0.153878
 H        -1.979381         1.529295        -0.770089
 H        -3.433002         2.931871         0.833163
 H        -1.774370         1.872044         4.098738
 H         0.529089         2.316605         2.437571
 H         0.063830         0.647723         3.102870
 H        -3.655782         1.019895         2.725106
 H        -1.724727        -0.852878         2.378423
 H        -2.456340        -0.745715         0.908906
