19
Iteration:  4523
 O         0.152422         0.014466         0.323171
 C        -0.883309         0.739332         1.025310
 C        -1.615059         1.804807         0.244217
 C        -2.667134         2.239353         1.353233
 O        -1.996265         3.172044         2.223381
 C        -1.408206         2.086842         2.921908
 C        -0.143316         1.521875         2.255373
 C        -2.592021         1.106019         2.331700
 C        -2.013582        -0.063594         1.601834
 H         0.120210        -0.889690         0.651923
 H        -1.123937         2.746937        -0.085728
 H        -2.194511         1.494911        -0.606371
 H        -3.623014         2.613393         1.008038
 H        -1.474653         2.122265         4.069855
 H         0.369414         2.313870         1.637349
 H         0.412399         0.940387         2.902765
 H        -3.420605         1.130661         3.040894
 H        -1.563940        -0.911391         2.205845
 H        -2.552773        -0.476796         0.754343
