19
Iteration:  2651charge 0 multiplicity 1
 O         0.199465        -0.035851         0.344249
 C        -0.817196         0.727999         0.963015
 C        -1.518962         1.850163         0.222789
 C        -2.600677         2.294503         1.250077
 O        -2.023408         3.215279         2.234212
 C        -1.474038         2.008096         2.917194
 C        -0.337621         1.433656         2.181309
 C        -2.659332         1.152851         2.374535
 C        -1.953838        -0.013929         1.755287
 H        -0.134585        -0.942592         0.224401
 H        -0.899177         2.677501        -0.031355
 H        -2.096165         1.545260        -0.727823
 H        -3.361356         2.918131         0.820443
 H        -1.332810         2.169293         3.998820
 H         0.423696         2.267154         1.982416
 H         0.270069         0.684254         2.673766
 H        -3.563780         0.975757         3.087012
 H        -1.552846        -0.577803         2.599530
 H        -2.655176        -0.742899         1.271829
