19
Iteration:   941charge 0 multiplicity 1
 O         0.221631         0.065765         0.257323
 C        -0.721788         0.699082         1.087341
 C        -1.628818         1.632500         0.301142
 C        -2.579770         2.288040         1.233834
 O        -1.919932         3.212796         2.171326
 C        -1.523179         2.067134         2.908236
 C        -0.261417         1.510510         2.387339
 C        -2.752344         1.184256         2.295002
 C        -2.052375        -0.100836         1.715196
 H         0.194432         0.627330        -0.547044
 H        -1.090503         2.412878        -0.302966
 H        -2.241538         0.842384        -0.313422
 H        -3.301653         2.813073         0.589394
 H        -1.444860         2.053660         4.012533
 H         0.400227         2.398563         2.111857
 H         0.372500         0.940768         3.076917
 H        -3.604602         0.912433         2.939063
 H        -1.573862        -0.807265         2.442718
 H        -2.723591        -0.736008         1.123526
