19
Iteration:  1809
 O         0.207462        -0.134751         0.464710
 C        -0.796282         0.788944         1.020081
 C        -1.797132         1.724183         0.202933
 C        -2.663705         2.258687         1.285723
 O        -1.989443         3.221376         2.084188
 C        -1.488500         2.106170         2.961977
 C        -0.206088         1.547484         2.253463
 C        -2.616813         1.129724         2.401794
 C        -1.823768         0.000332         1.700749
 H         0.278862         0.078761        -0.479534
 H        -1.278481         2.523701        -0.438352
 H        -2.392915         1.071656        -0.358213
 H        -3.624025         2.585854         0.800703
 H        -1.280296         2.429884         4.023081
 H         0.541160         2.340218         1.984389
 H         0.183608         0.776236         2.919517
 H        -3.567779         0.807955         2.796376
 H        -1.464648        -0.987210         2.202474
 H        -2.598781        -0.397551         0.981346
