19
Iteration:  3103
 O         0.172575         0.030481         0.168244
 C        -0.819942         0.779462         1.020780
 C        -1.682116         1.677140         0.124226
 C        -2.694810         2.286704         1.288342
 O        -1.928168         3.192348         2.122494
 C        -1.542128         2.060809         2.975617
 C        -0.162124         1.443330         2.289587
 C        -2.618039         1.164142         2.470642
 C        -1.968111        -0.001858         1.837907
 H         0.765201        -0.501172         0.736963
 H        -1.246767         2.594566        -0.378862
 H        -2.240777         1.144265        -0.571254
 H        -3.535168         2.826564         0.817948
 H        -1.300002         2.349596         3.978111
 H         0.531400         2.255270         2.164628
 H         0.046278         0.523430         2.882719
 H        -3.564372         0.908457         3.028941
 H        -1.468449        -0.665157         2.598118
 H        -2.477671        -0.631024         1.122895
