19
Iteration:  2523charge 0 multiplicity 1
 O         0.068802        -0.113211         0.382582
 C        -0.793206         0.746171         1.033890
 C        -1.593488         1.749233         0.200730
 C        -2.595926         2.317154         1.249309
 O        -2.025841         3.233992         2.215079
 C        -1.493177         2.104486         2.959511
 C        -0.240985         1.475822         2.257737
 C        -2.612432         1.154567         2.327112
 C        -1.881136        -0.085005         1.708930
 H         0.248958         0.212682        -0.529747
 H        -0.955502         2.500724        -0.190271
 H        -2.272519         1.321744        -0.540055
 H        -3.538973         2.780963         0.785016
 H        -1.465098         2.406071         3.966457
 H         0.472509         2.255282         1.938435
 H         0.274239         0.733354         3.028267
 H        -3.498355         0.927538         2.971608
 H        -1.458979        -0.786265         2.432097
 H        -2.398789        -0.555411         0.862426
