19
Iteration:  1820charge 0 multiplicity 1
 O         0.117552        -0.027062         0.443541
 C        -0.821278         0.851262         1.053612
 C        -1.727330         1.616028         0.126022
 C        -2.647435         2.226412         1.269542
 O        -1.912188         3.207233         2.111350
 C        -1.461330         2.103105         2.925475
 C        -0.241080         1.596804         2.283197
 C        -2.599099         1.092677         2.376447
 C        -1.934275        -0.100908         1.741780
 H         0.523288         0.256814        -0.386805
 H        -1.240632         2.466733        -0.484041
 H        -2.188996         0.998818        -0.584069
 H        -3.636230         2.715104         1.046409
 H        -1.494475         2.459301         3.992358
 H         0.511724         2.427503         2.199447
 H         0.337168         0.808857         2.771304
 H        -3.405853         1.081167         3.087776
 H        -1.447750        -0.914246         2.440859
 H        -2.489506        -0.527976         0.856885
