19
Iteration:  2504charge 0 multiplicity 1
 O         0.089693        -0.016999         0.310260
 C        -0.836323         0.750571         1.061453
 C        -1.608044         1.801611         0.266194
 C        -2.668079         2.257424         1.262009
 O        -1.953985         3.199935         2.121964
 C        -1.429786         2.040260         2.873266
 C        -0.175448         1.464339         2.253192
 C        -2.701488         1.139039         2.327353
 C        -1.990457        -0.097971         1.799983
 H         0.758992         0.706621         0.189116
 H        -0.874017         2.642580        -0.021734
 H        -1.814909         1.257577        -0.656983
 H        -3.589772         2.576222         0.814537
 H        -1.403574         2.237813         3.986543
 H         0.629418         2.122529         1.958385
 H         0.422357         0.857754         3.027079
 H        -3.554454         1.109381         2.911303
 H        -1.632458        -0.684073         2.672606
 H        -2.631736        -0.739469         1.203572
