19
Iteration:  4630
 O         0.049070        -0.023225         0.347730
 C        -0.817468         0.771167         1.035449
 C        -1.580965         1.817773         0.144219
 C        -2.636072         2.318348         1.280455
 O        -2.074933         3.213386         2.290012
 C        -1.477360         2.053707         2.944560
 C        -0.159672         1.487972         2.161717
 C        -2.518563         1.079561         2.433766
 C        -1.959807        -0.074984         1.583112
 H         0.309088        -0.747519         0.936711
 H        -1.313788         2.863300        -0.253247
 H        -2.318703         1.352891        -0.501642
 H        -3.502977         2.633981         0.779244
 H        -1.274267         2.117897         4.053388
 H         0.803120         2.144678         2.035383
 H         0.400959         0.720261         2.793346
 H        -3.425619         1.041447         2.987510
 H        -1.348381        -0.693922         2.248588
 H        -2.549731        -0.631766         0.843113
