19
Iteration:  2883
 O         0.214120         0.078587         0.188085
 C        -0.839739         0.696338         1.026637
 C        -1.671127         1.714245         0.246910
 C        -2.606553         2.296511         1.282692
 O        -1.972294         3.211080         2.106333
 C        -1.512283         2.063971         3.003953
 C        -0.216864         1.425971         2.300622
 C        -2.574010         1.176621         2.405252
 C        -2.001719        -0.032988         1.744525
 H         0.090620        -0.895100         0.298941
 H        -1.213058         2.634234        -0.179081
 H        -2.223774         1.297099        -0.601231
 H        -3.554103         2.604912         0.908131
 H        -1.593306         2.423442         3.987880
 H         0.597225         2.162083         2.192487
 H         0.291811         0.740605         3.002000
 H        -3.512995         0.957818         2.881095
 H        -1.507164        -0.598508         2.565234
 H        -2.598882        -0.759801         1.224735
