19
Iteration:  2417charge 0 multiplicity 1
 O         0.087707        -0.124596         0.373635
 C        -0.848149         0.723363         1.035470
 C        -1.552566         1.780178         0.265270
 C        -2.588237         2.196736         1.221519
 O        -2.055021         3.248121         2.192068
 C        -1.453950         2.100046         2.924012
 C        -0.278792         1.569317         2.163218
 C        -2.557018         1.142949         2.409597
 C        -1.945514        -0.082043         1.758806
 H         0.307966         0.409596        -0.424367
 H        -0.849749         2.614664        -0.116801
 H        -1.975571         1.364624        -0.689868
 H        -3.512074         2.439810         0.767102
 H        -1.212926         2.442554         3.986288
 H         0.264213         2.368853         1.738464
 H         0.308744         1.045607         2.896347
 H        -3.437210         1.051085         2.950382
 H        -1.600598        -0.869248         2.507420
 H        -2.556853        -0.734509         1.131870
