19
Iteration:   851charge 0 multiplicity 1
 O         0.100417        -0.029690         0.244286
 C        -0.852161         0.722873         1.058289
 C        -1.502108         1.758276         0.184545
 C        -2.515420         2.322605         1.264503
 O        -2.059914         3.198897         2.250958
 C        -1.561328         2.015067         2.982303
 C        -0.224004         1.523782         2.240637
 C        -2.675994         1.173417         2.233621
 C        -1.898427        -0.084262         1.804185
 H         0.768372        -0.442408         0.822728
 H        -0.871987         2.689307        -0.193497
 H        -2.195452         1.293007        -0.719095
 H        -3.347536         2.771377         0.779474
 H        -1.542537         2.225618         4.092104
 H         0.353368         2.475273         1.971476
 H         0.315595         0.805611         2.911835
 H        -3.652263         0.983066         2.655806
 H        -1.638713        -0.732617         2.677456
 H        -2.514846        -0.674782         0.983881
