19
Iteration:  3698
 O         0.024264        -0.076311         0.200493
 C        -0.787773         0.679609         1.012539
 C        -1.568953         1.803294         0.231642
 C        -2.607501         2.233796         1.236191
 O        -2.121422         3.253494         2.294210
 C        -1.481492         2.100105         2.910767
 C        -0.103472         1.530944         2.287240
 C        -2.575991         1.220224         2.365576
 C        -1.962526        -0.103916         1.748239
 H         0.804648        -0.384389         0.687262
 H        -0.940642         2.593766        -0.135392
 H        -2.020309         1.273934        -0.624243
 H        -3.481954         2.477647         0.643407
 H        -1.326688         2.102131         3.973960
 H         0.477205         2.374611         1.790401
 H         0.533181         0.766602         2.912435
 H        -3.565152         1.109398         2.931052
 H        -1.619356        -0.869008         2.512717
 H        -2.690703        -0.562714         1.011833
