19
Iteration:  4175charge 0 multiplicity 1
 O         0.199774         0.047712         0.359524
 C        -0.876484         0.782517         1.046283
 C        -1.733157         1.765166         0.187644
 C        -2.632622         2.286583         1.293919
 O        -1.861758         3.206297         2.254974
 C        -1.404023         1.982383         2.889849
 C        -0.182854         1.402492         2.282286
 C        -2.697724         1.097471         2.312695
 C        -2.063802        -0.039520         1.661790
 H         0.695132         0.766891        -0.103074
 H        -1.168700         2.581629        -0.386169
 H        -2.208045         1.124277        -0.518813
 H        -3.494890         2.889236         0.870044
 H        -1.328002         2.188382         3.989165
 H         0.490627         2.188500         2.262107
 H         0.275558         0.543512         2.754024
 H        -3.458703         1.045371         3.046061
 H        -1.914473        -0.835842         2.391219
 H        -2.632671        -0.601599         0.900175
