19
Iteration:  1975
 O         0.088872        -0.030145         0.275148
 C        -0.811870         0.821058         1.116900
 C        -1.689940         1.708891         0.300229
 C        -2.722380         2.133363         1.311779
 O        -1.878861         3.230495         1.938902
 C        -1.485793         2.164546         2.892529
 C        -0.146426         1.561786         2.290817
 C        -2.687389         1.054354         2.460013
 C        -1.874358        -0.107516         1.807200
 H         0.730580         0.550854        -0.193062
 H        -1.149576         2.501421        -0.117111
 H        -2.161411         1.072004        -0.427754
 H        -3.642511         2.583243         0.834427
 H        -1.555844         2.638002         3.828582
 H         0.348849         2.443840         1.965290
 H         0.358907         0.934893         3.086986
 H        -3.580764         0.887115         2.982790
 H        -1.559330        -0.941484         2.473261
 H        -2.556837        -0.635468         1.110160
