19
Iteration:  3561charge 0 multiplicity 1
 O         0.067421        -0.079191         0.218325
 C        -0.813575         0.731726         1.068178
 C        -1.601350         1.817478         0.222216
 C        -2.660012         2.324008         1.288178
 O        -1.972933         3.216699         2.250328
 C        -1.471939         2.044852         2.859976
 C        -0.160283         1.610134         2.271826
 C        -2.655406         1.101449         2.382953
 C        -1.958315        -0.131979         1.671653
 H         0.674933        -0.582918         0.809019
 H        -0.929423         2.667716        -0.011788
 H        -2.102042         1.223903        -0.566852
 H        -3.562999         2.740631         0.788057
 H        -1.307588         2.249688         3.968341
 H         0.546475         2.284607         1.730208
 H         0.443152         1.167615         3.108826
 H        -3.560680         0.909853         3.017449
 H        -1.757752        -0.760345         2.605414
 H        -2.537424        -0.789487         0.992545
