19
Iteration:   146charge 0 multiplicity 1
 O         0.342801         0.201265         0.298957
 C        -0.896737         0.636300         1.088893
 C        -1.527957         1.782533         0.280504
 C        -2.552204         2.361128         1.252084
 O        -1.925758         3.228947         2.179600
 C        -1.561522         2.058991         3.002324
 C        -0.233344         1.351344         2.363339
 C        -2.722448         1.189721         2.282790
 C        -2.139292        -0.207367         1.570665
 H         0.234242        -0.724692         0.002511
 H        -0.867703         2.549787         0.042557
 H        -2.072931         1.327170        -0.584680
 H        -3.449404         2.849270         0.785390
 H        -1.548138         2.181387         4.123329
 H         0.693388         1.920460         2.150271
 H         0.011949         0.485401         3.009497
 H        -3.763668         1.160089         2.765867
 H        -1.898158        -0.993984         2.313850
 H        -2.827691        -0.416902         0.774334
