19
Iteration:    66
 O         0.214703        -0.070708         0.406351
 C        -0.825667         0.672242         1.072341
 C        -1.441172         1.854054         0.213968
 C        -2.520450         2.351143         1.249402
 O        -2.053082         3.196579         2.301713
 C        -1.513584         2.006359         3.029481
 C        -0.172116         1.441867         2.372127
 C        -2.704471         1.126056         2.201046
 C        -2.168044        -0.068773         1.509775
 H         0.532414         0.375398        -0.409433
 H        -0.744930         2.709333         0.057434
 H        -1.848751         1.660810        -0.800680
 H        -3.410101         2.714852         0.781082
 H        -1.494082         2.283831         4.076955
 H         0.389406         2.292899         2.061337
 H         0.334602         0.751256         2.966534
 H        -3.655948         1.183538         2.686705
 H        -2.158061        -1.041908         1.952366
 H        -2.810090        -0.267036         0.660949
