19
Iteration:  1423charge 0 multiplicity 1
 O         0.201645        -0.098583         0.432107
 C        -0.825451         0.733171         1.014306
 C        -1.601610         1.775334         0.213107
 C        -2.625416         2.316144         1.179084
 O        -2.031849         3.213178         2.246540
 C        -1.504483         2.063612         2.929802
 C        -0.226962         1.471049         2.307368
 C        -2.685418         1.202102         2.277736
 C        -1.916079        -0.074658         1.704562
 H         0.314452         0.247398        -0.456329
 H        -1.042805         2.619095        -0.234637
 H        -2.046874         1.249476        -0.743517
 H        -3.520440         2.704647         0.806341
 H        -1.408446         2.101694         3.991896
 H         0.424082         2.296079         1.942548
 H         0.331975         0.815926         3.019039
 H        -3.672455         1.160206         2.756321
 H        -1.501519        -0.674721         2.506086
 H        -2.397667        -0.914812         1.176673
