19
Iteration:  1227charge 0 multiplicity 1
 O         0.170231        -0.011645         0.395819
 C        -0.765805         0.789270         1.034529
 C        -1.650109         1.701370         0.168287
 C        -2.613501         2.295802         1.237533
 O        -1.875464         3.163180         2.141587
 C        -1.561081         2.034547         3.019365
 C        -0.281588         1.569440         2.333440
 C        -2.671471         1.148502         2.329941
 C        -1.929119        -0.068139         1.698676
 H         0.087747         0.055091        -0.573338
 H        -1.071135         2.483514        -0.397391
 H        -2.144150         0.977056        -0.513758
 H        -3.573624         2.721834         0.890737
 H        -1.838122         2.257544         4.067948
 H         0.498230         2.340368         2.155860
 H         0.225912         0.705045         2.935448
 H        -3.758440         1.101835         2.736757
 H        -1.346766        -0.739443         2.390311
 H        -2.543320        -0.694032         0.980593
