19
Iteration:  2038
 O         0.161060        -0.093745         0.296991
 C        -0.818733         0.668322         1.061711
 C        -1.690692         1.695138         0.254753
 C        -2.715951         2.222443         1.303635
 O        -2.073783         3.259093         2.164009
 C        -1.470072         2.155690         2.864087
 C        -0.179388         1.680172         2.136040
 C        -2.583622         1.126205         2.394705
 C        -1.875725        -0.112550         1.816773
 H         0.831754        -0.383655         0.930619
 H        -0.830445         2.330563        -0.284641
 H        -2.166400         1.241941        -0.639506
 H        -3.694623         2.543651         0.903963
 H        -1.364505         2.319024         3.973347
 H         0.407565         2.569058         1.652777
 H         0.647180         1.093444         2.603177
 H        -3.393234         1.097329         3.045176
 H        -1.597645        -0.979173         2.449129
 H        -2.660021        -0.421086         1.133582
