19
Iteration:   819
 O         0.156326         0.041162         0.281005
 C        -0.841433         0.748799         1.058471
 C        -1.611657         1.779020         0.239450
 C        -2.674443         2.266364         1.288098
 O        -1.908833         3.181609         2.054590
 C        -1.525235         2.012991         2.905804
 C        -0.243919         1.432859         2.426851
 C        -2.671247         1.173114         2.334057
 C        -1.980002        -0.093108         1.720345
 H         1.084051         0.348020         0.379166
 H        -1.068004         2.734596        -0.009280
 H        -1.945072         1.178934        -0.638121
 H        -3.498898         2.787572         0.855213
 H        -1.456788         2.458387         3.906033
 H         0.676864         2.101916         2.331940
 H         0.066142         0.555621         3.066598
 H        -3.538958         1.070522         2.965285
 H        -1.691801        -0.881136         2.425747
 H        -2.443967        -0.479963         0.791032
