19
Iteration:  2347
 O         0.176711         0.190126         0.351387
 C        -0.869165         0.686755         1.116036
 C        -1.684194         1.688564         0.159314
 C        -2.657013         2.192029         1.183267
 O        -1.932897         3.194740         2.121048
 C        -1.341069         2.116774         2.920770
 C        -0.197415         1.569534         2.273850
 C        -2.616820         1.143955         2.387463
 C        -2.036106        -0.159794         1.816389
 H         0.064995        -0.757302         0.173075
 H        -1.177741         2.427677        -0.370750
 H        -2.174612         1.039985        -0.605777
 H        -3.660666         2.646487         0.802962
 H        -1.306808         2.268785         3.939419
 H         0.352408         2.382949         1.759063
 H         0.503016         0.876082         2.778999
 H        -3.597367         1.065529         3.050995
 H        -1.686812        -0.924115         2.483118
 H        -2.816018        -0.744830         1.272512
