19
Iteration:  4693
 O         0.051948         0.161998         0.231809
 C        -0.808879         0.761654         1.068461
 C        -1.707638         1.732938         0.198295
 C        -2.635874         2.240287         1.213879
 O        -1.922684         3.187279         2.199127
 C        -1.462053         2.039420         2.948199
 C        -0.228077         1.383112         2.301904
 C        -2.577355         1.201016         2.378709
 C        -1.937954        -0.094200         1.759391
 H         0.725981        -0.466980         0.545357
 H        -1.015618         2.539212        -0.294230
 H        -2.205258         1.252985        -0.666932
 H        -3.586381         2.758087         0.858221
 H        -1.510970         2.285669         3.992895
 H         0.662607         2.027325         2.144474
 H         0.024389         0.565923         3.079515
 H        -3.514009         1.082186         2.886918
 H        -1.449581        -0.843867         2.386079
 H        -2.336196        -0.669075         0.870028
