19
Iteration:  4057charge 0 multiplicity 1
 O         0.149398        -0.015776         0.267148
 C        -0.831739         0.820536         1.007585
 C        -1.670547         1.802556         0.195455
 C        -2.649706         2.299262         1.285902
 O        -1.889599         3.191249         2.224097
 C        -1.475318         1.993336         2.920344
 C        -0.173468         1.400712         2.320554
 C        -2.665089         1.171316         2.350060
 C        -2.050867        -0.060232         1.695590
 H         0.991392         0.411618         0.472107
 H        -1.220019         2.650390        -0.308746
 H        -2.205314         1.196743        -0.583180
 H        -3.631041         2.809769         1.180751
 H        -1.425187         2.111397         3.960109
 H         0.706569         2.155625         2.261028
 H         0.134053         0.428978         2.867893
 H        -3.505397         1.097101         2.988096
 H        -1.597827        -0.883060         2.129074
 H        -2.630815        -0.633664         0.990258
