19
Iteration:  2848charge 0 multiplicity 1
 O         0.089710         0.123691         0.276905
 C        -0.844289         0.736673         1.112448
 C        -1.703476         1.732665         0.258469
 C        -2.630440         2.303099         1.281743
 O        -1.859262         3.179103         2.056476
 C        -1.459567         2.070884         2.945811
 C        -0.190320         1.501677         2.340709
 C        -2.603401         1.105236         2.366358
 C        -2.007778        -0.128023         1.663099
 H         0.656331        -0.513163         0.769254
 H        -1.161794         2.493430        -0.195336
 H        -2.282713         1.119958        -0.469028
 H        -3.464359         2.764051         0.914090
 H        -1.604249         2.230124         4.003223
 H         0.454137         2.377205         1.927023
 H         0.336902         0.661386         2.870317
 H        -3.482017         0.878083         3.011747
 H        -1.661091        -0.796189         2.431926
 H        -2.631874        -0.636525         0.898454
