19
Iteration:  3713
 O         0.062587        -0.155628         0.143233
 C        -0.799081         0.733403         1.047917
 C        -1.465307         1.786908         0.185150
 C        -2.641284         2.270447         1.271851
 O        -2.066901         3.203669         2.222780
 C        -1.523065         2.057319         3.048993
 C        -0.197364         1.549179         2.179273
 C        -2.602010         1.104247         2.408396
 C        -1.970933         0.010655         1.779210
 H         0.756021        -0.570601         0.675617
 H        -0.841600         2.657294        -0.069067
 H        -1.889786         1.543278        -0.815216
 H        -3.620029         2.692210         1.026983
 H        -1.535147         2.496019         4.108222
 H         0.267054         2.501585         1.861309
 H         0.502874         1.152815         2.890571
 H        -3.486702         1.039370         3.038953
 H        -1.536878        -0.681463         2.428441
 H        -2.592638        -0.471798         1.068020
