19
Iteration:  4019
 O         0.042365         0.092391         0.131966
 C        -0.846978         0.752227         1.043725
 C        -1.559630         1.776599         0.296162
 C        -2.598265         2.343725         1.273315
 O        -1.861197         3.252464         2.203875
 C        -1.523655         2.050141         2.938687
 C        -0.247541         1.459538         2.313998
 C        -2.636667         1.086481         2.354559
 C        -2.017197        -0.217917         1.732085
 H         0.739862        -0.396690         0.648034
 H        -0.717282         2.425448        -0.123109
 H        -2.113885         1.355200        -0.552953
 H        -3.595970         2.504490         0.796295
 H        -1.513936         2.354959         4.080397
 H         0.413787         2.288245         2.247538
 H         0.301062         0.735555         2.949599
 H        -3.617197         1.112705         2.932103
 H        -1.495185        -0.969431         2.476211
 H        -2.571011        -0.648752         0.860422
