19
Iteration:  3889
 O         0.081404        -0.004626         0.260832
 C        -0.783801         0.751630         1.028559
 C        -1.691276         1.790954         0.192530
 C        -2.638292         2.281975         1.310189
 O        -1.846292         3.189179         2.176890
 C        -1.512495         2.098053         2.906938
 C        -0.253368         1.466250         2.333557
 C        -2.613390         1.122873         2.394981
 C        -1.943995        -0.097894         1.681153
 H         0.931977         0.436794         0.144050
 H        -1.168810         2.662369        -0.299291
 H        -2.332713         1.267517        -0.475389
 H        -3.676775         2.590196         1.033582
 H        -1.494442         2.264613         4.014215
 H         0.541006         2.210956         2.323327
 H        -0.036086         0.492051         2.949710
 H        -3.553910         0.881440         2.877240
 H        -1.527938        -0.814532         2.328306
 H        -2.628700        -0.628042         1.048283
