19
Iteration:  3886
 O         0.078905        -0.021592         0.264268
 C        -0.776266         0.756578         1.019850
 C        -1.682625         1.806401         0.198656
 C        -2.674551         2.284127         1.286398
 O        -1.860837         3.165325         2.184896
 C        -1.498753         2.088320         2.948595
 C        -0.235289         1.469873         2.322978
 C        -2.599447         1.140728         2.384073
 C        -1.968538        -0.087348         1.684372
 H         0.935910         0.474886         0.266004
 H        -1.253923         2.626138        -0.269117
 H        -2.266918         1.250943        -0.566898
 H        -3.606868         2.601768         0.901653
 H        -1.486381         2.242695         4.063426
 H         0.590505         2.213406         2.197789
 H        -0.008425         0.585921         2.897091
 H        -3.471286         0.878644         2.911178
 H        -1.459765        -0.801330         2.408145
 H        -2.662373        -0.596035         0.988712
