19
Iteration:   557charge 0 multiplicity 1
 O         0.156866         0.121792         0.252197
 C        -0.816618         0.731718         1.027880
 C        -1.558255         1.718502         0.161746
 C        -2.543813         2.333227         1.213980
 O        -1.852245         3.185453         2.242439
 C        -1.622406         1.992083         3.028482
 C        -0.255477         1.404718         2.387660
 C        -2.722473         1.180549         2.221491
 C        -2.066824        -0.088832         1.716812
 H         0.956009         0.131388         0.789163
 H        -0.853157         2.480899        -0.291348
 H        -2.189446         1.206765        -0.636463
 H        -3.301949         2.981599         0.868267
 H        -1.665707         2.042143         4.127438
 H         0.531731         2.157072         2.246185
 H         0.297277         0.656207         2.908845
 H        -3.693316         0.998776         2.729790
 H        -1.688720        -0.878735         2.341965
 H        -2.663974        -0.669689         1.027502
