19
Iteration:  4988
 O         0.171935         0.116856         0.256398
 C        -0.794922         0.678911         0.991984
 C        -1.628643         1.753972         0.228588
 C        -2.591140         2.225655         1.281634
 O        -1.989291         3.178926         2.245030
 C        -1.467492         2.017529         2.926948
 C        -0.251925         1.408619         2.309352
 C        -2.603108         1.257672         2.399928
 C        -1.972396        -0.020095         1.708302
 H        -0.124970        -0.469044        -0.447046
 H        -0.981050         2.654968        -0.071874
 H        -2.290025         1.329029        -0.510593
 H        -3.561021         2.635375         0.688186
 H        -1.503661         2.268287         3.980699
 H         0.613276         1.965356         1.975577
 H         0.125920         0.580014         2.884335
 H        -3.479534         1.210486         3.005533
 H        -1.741136        -0.891286         2.321124
 H        -2.684576        -0.594130         1.120812
