19
Iteration:  4550
 O         0.156164         0.080695         0.148940
 C        -0.844461         0.797647         1.003630
 C        -1.647854         1.750636         0.206873
 C        -2.675303         2.282469         1.283883
 O        -1.909806         3.213001         2.163281
 C        -1.508419         2.057103         2.958515
 C        -0.187750         1.381978         2.366769
 C        -2.660286         1.126167         2.406883
 C        -1.921900        -0.065493         1.767008
 H         0.542789        -0.587830         0.730188
 H        -1.236963         2.621782        -0.294557
 H        -2.279829         1.253467        -0.569887
 H        -3.659473         2.749429         0.952786
 H        -1.475385         2.236465         4.005977
 H         0.460991         2.193869         2.173327
 H         0.189204         0.446239         2.987381
 H        -3.607080         1.120301         2.970360
 H        -1.471237        -0.860641         2.308513
 H        -2.476424        -0.549170         0.936438
