19
Iteration:  2191
 O         0.110621        -0.029173         0.287176
 C        -0.817930         0.666349         1.129318
 C        -1.648344         1.626847         0.214303
 C        -2.673443         2.190328         1.259581
 O        -2.020941         3.218345         2.105866
 C        -1.435231         2.183870         2.902497
 C        -0.235967         1.620994         2.159933
 C        -2.607551         1.143331         2.432968
 C        -1.874814        -0.101229         1.909389
 H         0.231222         0.639693        -0.419890
 H        -0.976615         2.527728        -0.161199
 H        -2.259062         1.117827        -0.561017
 H        -3.478219         2.464214         0.579936
 H        -1.442304         2.451782         3.986859
 H         0.484428         2.440871         1.662863
 H         0.281530         1.008335         2.920850
 H        -3.383220         1.074224         3.088280
 H        -1.429363        -0.854826         2.569333
 H        -2.374296        -0.586568         1.079686
