19
Iteration:  3685
 O         0.043298        -0.014298         0.225853
 C        -0.798389         0.727076         1.118270
 C        -1.611115         1.734286         0.285179
 C        -2.620706         2.319088         1.282191
 O        -2.069360         3.235116         2.227997
 C        -1.405333         2.086171         2.889254
 C        -0.204171         1.496920         2.192696
 C        -2.597213         1.118852         2.285997
 C        -1.940625        -0.076884         1.724608
 H         0.809626        -0.357225         0.742019
 H        -0.910185         2.536897        -0.163915
 H        -2.219484         1.217473        -0.453058
 H        -3.600325         2.749461         0.964657
 H        -1.338605         2.321563         3.906435
 H         0.699486         2.066597         2.055553
 H         0.101161         0.791437         3.061610
 H        -3.423436         1.096553         2.988296
 H        -1.553685        -0.847438         2.520655
 H        -2.452285        -0.688321         0.896501
