19
Iteration:  1842charge 0 multiplicity 1
 O         0.151676         0.057582         0.262368
 C        -0.865745         0.668706         1.124553
 C        -1.678688         1.693341         0.258971
 C        -2.647065         2.224642         1.200155
 O        -1.943591         3.169407         2.052574
 C        -1.470007         2.041613         2.939708
 C        -0.208016         1.506488         2.248128
 C        -2.670170         1.181358         2.359177
 C        -1.926915        -0.055028         1.898547
 H         0.808964         0.774976         0.106305
 H        -1.002384         2.476364        -0.230083
 H        -2.112673         1.150948        -0.540191
 H        -3.614199         2.608734         0.760663
 H        -1.401697         2.386324         3.996386
 H         0.382382         2.364975         1.822898
 H         0.526978         0.999958         2.896659
 H        -3.594957         1.052919         2.862692
 H        -1.456106        -0.689921         2.752673
 H        -2.696332        -0.615673         1.304203
