19
Iteration:    13
 O         0.223321         0.101825         0.303512
 C        -0.831959         0.724884         1.091205
 C        -1.505638         2.023398         0.152374
 C        -2.560850         2.343762         1.176360
 O        -1.870414         3.150050         2.243243
 C        -1.583452         1.970475         3.068631
 C        -0.313906         1.224478         2.443352
 C        -2.774471         1.174288         2.152185
 C        -2.023713        -0.059682         1.611404
 H         0.325763        -0.847489         0.595000
 H        -1.030861         2.812263        -0.262284
 H        -1.984974         1.443724        -0.650475
 H        -3.512074         2.749815         0.845488
 H        -1.530313         2.303525         4.102891
 H         0.475247         1.934117         2.164229
 H         0.145289         0.378590         3.061751
 H        -3.732039         1.053999         2.620986
 H        -1.642170        -0.528074         2.526051
 H        -2.454798        -0.859919         1.025656
