19
Iteration:  4688charge 0 multiplicity 1
 O         0.045527         0.189686         0.208189
 C        -0.840807         0.731396         1.120142
 C        -1.667072         1.729268         0.184461
 C        -2.582738         2.256731         1.255389
 O        -1.944505         3.152827         2.173157
 C        -1.466565         2.030798         2.946547
 C        -0.207985         1.417439         2.318646
 C        -2.610230         1.202710         2.349997
 C        -1.906897        -0.100175         1.749682
 H         0.569839        -0.578064         0.518190
 H        -1.169368         2.563055        -0.186655
 H        -2.212553         1.300299        -0.664098
 H        -3.515223         2.684745         0.903874
 H        -1.352447         2.230517         4.048422
 H         0.626210         2.025075         1.971633
 H        -0.061904         0.631545         3.002132
 H        -3.632215         1.254730         2.828827
 H        -1.485515        -0.821409         2.497669
 H        -2.423669        -0.698628         1.001904
