19
Iteration:   775
 O         0.260436        -0.064585         0.415137
 C        -0.840142         0.743077         1.049590
 C        -1.613508         1.810861         0.201694
 C        -2.600343         2.361590         1.239256
 O        -1.969439         3.204093         2.212931
 C        -1.553569         1.997789         2.937030
 C        -0.213206         1.461338         2.221286
 C        -2.712357         1.135014         2.266159
 C        -1.973357        -0.078779         1.729997
 H         0.434136         0.107421        -0.543914
 H        -0.937093         2.662757         0.025991
 H        -2.266510         1.424579        -0.488357
 H        -3.509912         2.781688         0.871169
 H        -1.400588         2.060440         4.020914
 H         0.454865         2.370437         2.070102
 H         0.246191         0.781749         2.993851
 H        -3.645990         0.921071         2.761121
 H        -1.735933        -0.663471         2.613996
 H        -2.640111        -0.571461         1.015457
