19
Iteration:  1465
 O         0.125041         0.037239         0.296819
 C        -0.815373         0.711998         1.126903
 C        -1.606677         1.735033         0.207904
 C        -2.650282         2.166709         1.219006
 O        -1.870404         3.163044         2.076916
 C        -1.547644         2.123583         3.008210
 C        -0.248236         1.508269         2.436462
 C        -2.631001         1.158076         2.350914
 C        -2.000301        -0.077826         1.638426
 H         1.026815         0.389709         0.226332
 H        -1.120581         2.595753        -0.177391
 H        -2.052512         1.148303        -0.709579
 H        -3.543768         2.548064         0.834664
 H        -1.549487         2.632244         3.961241
 H         0.357940         2.310926         2.204445
 H         0.366565         0.844847         3.001056
 H        -3.545883         1.155947         2.987843
 H        -1.744089        -1.011275         2.160742
 H        -2.701825        -0.452232         0.803118
