19
Iteration:  1658
 O        -0.008882        -0.155791         0.320462
 C        -0.731750         0.770145         1.067362
 C        -1.611435         1.759601         0.201067
 C        -2.659240         2.277144         1.223299
 O        -2.082506         3.229503         2.224486
 C        -1.533680         2.133843         2.846999
 C        -0.195932         1.524204         2.288019
 C        -2.600281         1.087126         2.297370
 C        -1.761106        -0.040360         1.810828
 H         0.851159         0.296852         0.218722
 H        -0.984873         2.514120        -0.396823
 H        -2.244743         1.249523        -0.576733
 H        -3.582983         2.717477         0.724720
 H        -1.505943         2.307258         3.949587
 H         0.592365         2.259324         2.091516
 H         0.189964         0.799628         3.077550
 H        -3.563576         1.039114         2.842001
 H        -1.400966        -0.628872         2.617318
 H        -2.203667        -0.597757         1.040239
