19
Iteration:  4178
 O         0.205367         0.026726         0.355302
 C        -0.873287         0.797725         1.033613
 C        -1.726589         1.771762         0.181857
 C        -2.630892         2.333448         1.311140
 O        -1.865937         3.220564         2.254661
 C        -1.393440         1.969341         2.895184
 C        -0.236406         1.387546         2.280589
 C        -2.678019         1.102694         2.313274
 C        -2.039858        -0.075036         1.671862
 H         0.668379         0.809284        -0.007644
 H        -1.188340         2.490991        -0.364597
 H        -2.278566         1.098729        -0.530587
 H        -3.539867         2.859864         0.870788
 H        -1.393492         2.194801         3.917131
 H         0.546344         2.290004         2.168717
 H         0.372538         0.576340         2.840965
 H        -3.568538         0.988568         2.960339
 H        -1.825072        -0.872585         2.371500
 H        -2.705058        -0.562747         0.894587
