19
Iteration:  3321charge 0 multiplicity 1
 O         0.123613        -0.176997         0.246058
 C        -0.714393         0.778062         1.038097
 C        -1.627550         1.795169         0.202925
 C        -2.638510         2.278887         1.334633
 O        -2.097090         3.225312         2.292198
 C        -1.460819         2.088821         2.865186
 C        -0.118483         1.509645         2.156619
 C        -2.662768         1.186431         2.338349
 C        -1.964326        -0.021129         1.732285
 H         0.521048        -0.731148         0.986714
 H        -1.014049         2.778321         0.014088
 H        -2.338403         1.386878        -0.584815
 H        -3.535844         2.560046         0.862140
 H        -1.454593         2.230050         3.929124
 H         0.687846         2.271308         2.009439
 H         0.228428         0.738451         2.883365
 H        -3.585544         0.998686         2.839178
 H        -1.629044        -0.629826         2.633240
 H        -2.491515        -0.484407         0.918424
