19
Iteration:    97
 O         0.048744        -0.182305         0.355801
 C        -0.769154         0.774472         0.985076
 C        -1.479955         1.998670         0.219306
 C        -2.569180         2.390756         1.248695
 O        -2.029259         3.234450         2.313717
 C        -1.605365         1.978253         2.989177
 C        -0.235586         1.359683         2.351506
 C        -2.717202         1.080257         2.139550
 C        -1.883507        -0.030891         1.611497
 H         0.966638        -0.237263         0.703240
 H        -0.752034         2.932093         0.126294
 H        -1.940812         1.650820        -0.711841
 H        -3.459371         2.773859         0.778145
 H        -1.578428         2.238911         4.039799
 H         0.465915         2.199606         2.225143
 H         0.173293         0.549428         2.934596
 H        -3.683574         0.979862         2.549623
 H        -1.454274        -0.599919         2.428391
 H        -2.366203        -0.659048         0.803027
