19
Iteration:  2904charge 0 multiplicity 1
 O         0.101323         0.002992         0.239202
 C        -0.779870         0.697885         1.141568
 C        -1.546134         1.719402         0.261885
 C        -2.690508         2.258779         1.247765
 O        -1.986883         3.270981         2.288243
 C        -1.429112         2.121294         2.892014
 C        -0.255418         1.582718         2.209123
 C        -2.650136         1.148886         2.349365
 C        -1.925731        -0.172239         1.699533
 H        -0.135110        -0.921912         0.252331
 H        -0.978803         2.498668        -0.209968
 H        -2.075903         1.193904        -0.552991
 H        -3.483919         2.689227         0.791016
 H        -1.446655         2.137596         3.940929
 H         0.453284         2.386545         1.858774
 H         0.518737         1.077958         2.834215
 H        -3.495775         1.015029         3.013910
 H        -1.824283        -1.010326         2.367214
 H        -2.465565        -0.442123         0.780337
