19
Iteration:   820
 O         0.157062         0.038256         0.277459
 C        -0.851926         0.751315         1.054494
 C        -1.599697         1.783539         0.234967
 C        -2.683272         2.266501         1.289969
 O        -1.905894         3.181254         2.059889
 C        -1.529743         2.007256         2.897562
 C        -0.243073         1.435542         2.425585
 C        -2.675768         1.183928         2.330978
 C        -1.971443        -0.103886         1.721879
 H         1.088690         0.318189         0.389388
 H        -1.085066         2.714768         0.011193
 H        -1.931478         1.198147        -0.585104
 H        -3.506989         2.804656         0.843984
 H        -1.471229         2.444576         3.913940
 H         0.667708         2.111688         2.332056
 H         0.055991         0.562650         3.072714
 H        -3.525968         1.088622         3.002704
 H        -1.674835        -0.865240         2.448610
 H        -2.408338        -0.501332         0.826526
