19
Iteration:  3258
 O         0.119842         0.116485         0.211179
 C        -0.826904         0.793000         1.100610
 C        -1.764463         1.673746         0.198979
 C        -2.674482         2.279493         1.273374
 O        -1.912243         3.215654         2.067491
 C        -1.512883         2.008202         2.920087
 C        -0.142427         1.381644         2.418177
 C        -2.614583         1.176859         2.376067
 C        -1.943701        -0.035644         1.737617
 H         0.725375        -0.485455         0.720943
 H        -1.236928         2.567582        -0.460882
 H        -2.265752         0.985607        -0.472229
 H        -3.599473         2.829533         0.926642
 H        -1.401852         2.354576         3.929394
 H         0.665467         2.047730         2.197573
 H         0.522145         0.549027         2.800516
 H        -3.328828         1.179944         3.142266
 H        -1.544201        -0.711722         2.511972
 H        -2.535293        -0.669088         1.063336
