19
Iteration:  4150
 O         0.138492        -0.005260         0.238811
 C        -0.866111         0.771557         1.071403
 C        -1.613251         1.837014         0.244102
 C        -2.636866         2.286876         1.302656
 O        -1.902419         3.184621         2.132288
 C        -1.479042         2.001228         2.975107
 C        -0.255274         1.385190         2.371845
 C        -2.621384         1.107087         2.374715
 C        -1.952732        -0.029522         1.686449
 H         0.237381         0.590904        -0.536009
 H        -0.947993         2.678901        -0.126793
 H        -1.929492         1.228618        -0.621783
 H        -3.545304         2.682031         0.891639
 H        -1.488592         2.366304         4.056895
 H         0.321977         2.254854         2.192346
 H         0.282481         0.643075         2.912247
 H        -3.614349         1.046507         2.900969
 H        -1.716427        -0.985384         2.204950
 H        -2.703806        -0.411653         1.001634
