19
Iteration:  3856charge 0 multiplicity 1
 O         0.052691        -0.095871         0.307173
 C        -0.759735         0.702868         1.023686
 C        -1.527279         1.825424         0.264206
 C        -2.636382         2.291997         1.330450
 O        -2.041474         3.223768         2.298054
 C        -1.481201         2.017630         2.877192
 C        -0.177215         1.564540         2.107456
 C        -2.624868         1.137950         2.346137
 C        -2.038010        -0.094948         1.714601
 H         0.930552         0.075215         0.667665
 H        -0.893574         2.668463        -0.187476
 H        -2.052392         1.496877        -0.610214
 H        -3.577280         2.506534         0.775945
 H        -1.267580         2.132436         3.974833
 H         0.471756         2.398238         1.781055
 H         0.502570         0.911496         2.859514
 H        -3.519293         1.017156         2.913820
 H        -1.671332        -0.799395         2.378210
 H        -2.602872        -0.521108         0.926499
