19
Iteration:  1866charge 0 multiplicity 1
 O         0.159994        -0.026551         0.173237
 C        -0.776246         0.666623         1.060195
 C        -1.616493         1.712387         0.208810
 C        -2.704124         2.221191         1.276898
 O        -2.066456         3.315033         2.136086
 C        -1.505388         2.151322         2.859793
 C        -0.191975         1.513582         2.275249
 C        -2.631698         1.186618         2.435481
 C        -1.907522        -0.145978         1.828245
 H         1.031866        -0.065923         0.624111
 H        -1.030919         2.503161        -0.267316
 H        -2.061323         1.125323        -0.619180
 H        -3.665605         2.502417         0.736099
 H        -1.387883         2.349796         3.912448
 H         0.684015         2.055595         2.115522
 H        -0.005353         0.941214         3.160110
 H        -3.437935         1.038233         3.084170
 H        -1.446148        -0.591141         2.755411
 H        -2.609258        -0.856927         1.327756
