19
Iteration:  2452charge 0 multiplicity 1
 O         0.166731         0.021203         0.369774
 C        -0.799250         0.746374         1.102462
 C        -1.780050         1.758564         0.205245
 C        -2.659855         2.331855         1.181737
 O        -2.002191         3.218122         2.169888
 C        -1.443703         2.017423         2.900615
 C        -0.200427         1.467221         2.279784
 C        -2.550804         1.166295         2.339696
 C        -1.889142        -0.067931         1.725564
 H        -0.137449        -0.903460         0.203160
 H        -1.095478         2.491486        -0.364169
 H        -2.257509         1.025916        -0.455901
 H        -3.590885         2.685092         0.828508
 H        -1.348209         2.239862         4.033239
 H         0.508725         2.320878         2.040465
 H         0.342555         0.770167         2.856962
 H        -3.418599         1.002421         2.941326
 H        -1.635134        -0.687702         2.610410
 H        -2.545300        -0.521721         0.976084
