19
Iteration:  2852charge 0 multiplicity 1
 O         0.083003         0.153804         0.291994
 C        -0.842741         0.759895         1.130942
 C        -1.706407         1.723767         0.212213
 C        -2.624477         2.318991         1.271489
 O        -1.848990         3.175860         2.068112
 C        -1.455719         2.038136         2.894198
 C        -0.178184         1.479284         2.319149
 C        -2.619632         1.088194         2.395009
 C        -2.008511        -0.141754         1.698055
 H         0.510087        -0.551514         0.793147
 H        -1.157190         2.636247        -0.253503
 H        -2.231940         1.102099        -0.512609
 H        -3.654831         2.786579         0.957385
 H        -1.537913         2.302318         3.948449
 H         0.503370         2.261825         2.106365
 H         0.283850         0.752573         2.988642
 H        -3.530729         0.927963         2.945249
 H        -1.557211        -0.835283         2.455283
 H        -2.567690        -0.567264         0.876014
