19
Iteration:  2597
 O         0.257034         0.062801         0.226942
 C        -0.818603         0.717917         1.051683
 C        -1.636687         1.770940         0.160575
 C        -2.628916         2.295681         1.262539
 O        -1.935756         3.164346         2.138518
 C        -1.525844         2.113097         2.970203
 C        -0.248457         1.356328         2.343550
 C        -2.683394         1.215647         2.413338
 C        -1.972110        -0.064310         1.753866
 H         0.044035        -0.861479         0.088555
 H        -1.082328         2.636097        -0.116958
 H        -2.122909         1.254365        -0.731252
 H        -3.535038         2.924530         1.094658
 H        -1.468183         2.463882         4.009254
 H         0.645512         2.011653         2.189257
 H         0.098522         0.557544         2.887248
 H        -3.755892         1.080709         2.881544
 H        -1.535519        -0.750477         2.485087
 H        -2.680089        -0.527797         1.018552
