19
Iteration:    99charge 0 multiplicity 1
 O         0.047150        -0.177570         0.339430
 C        -0.772744         0.787356         0.985009
 C        -1.493006         2.008798         0.208895
 C        -2.564304         2.389666         1.240604
 O        -2.020835         3.226620         2.303687
 C        -1.605353         1.978532         3.008165
 C        -0.216413         1.380009         2.380169
 C        -2.714726         1.079862         2.130972
 C        -1.898517        -0.061863         1.618044
 H         0.891802        -0.267501         0.766441
 H        -0.761926         2.837191         0.101488
 H        -1.984322         1.672241        -0.745416
 H        -3.440184         2.792184         0.777054
 H        -1.649328         2.249212         4.058716
 H         0.532288         2.149063         2.300351
 H         0.220571         0.583073         2.890570
 H        -3.691108         0.974367         2.557523
 H        -1.516059        -0.593005         2.470892
 H        -2.278061        -0.652348         0.795524
