19
Iteration:  1219
 O         0.228048         0.030433         0.395955
 C        -0.841042         0.799429         1.039050
 C        -1.671307         1.725830         0.137104
 C        -2.555065         2.206989         1.208531
 O        -1.863228         3.201895         2.179747
 C        -1.599328         2.052159         2.966447
 C        -0.297764         1.471411         2.297830
 C        -2.698283         1.162623         2.322024
 C        -1.924864        -0.062863         1.786883
 H         0.106854         0.130925        -0.563753
 H        -1.102022         2.606309        -0.340112
 H        -2.287656         0.977886        -0.515765
 H        -3.525562         2.699326         0.882097
 H        -1.581477         2.237139         4.078904
 H         0.541852         2.153762         2.185571
 H         0.049812         0.640909         2.751391
 H        -3.651442         1.165733         2.802018
 H        -1.457115        -0.697825         2.573986
 H        -2.298795        -0.614891         0.972401
