19
Iteration:   100charge 0 multiplicity 1
 O         0.046214        -0.174678         0.330007
 C        -0.774403         0.793868         0.987562
 C        -1.498230         2.012745         0.204212
 C        -2.560980         2.387805         1.236503
 O        -2.016499         3.221440         2.298423
 C        -1.605272         1.978190         3.015448
 C        -0.209536         1.392526         2.392480
 C        -2.711732         1.082615         2.127996
 C        -1.907098        -0.075535         1.619651
 H         0.865327        -0.278672         0.803774
 H        -0.775625         2.780913         0.082813
 H        -1.998057         1.686804        -0.756546
 H        -3.442819         2.810426         0.773020
 H        -1.683177         2.245061         4.076944
 H         0.570849         2.132766         2.335813
 H         0.251977         0.578518         2.887774
 H        -3.706847         0.967130         2.570399
 H        -1.544572        -0.603312         2.494849
 H        -2.241306        -0.656239         0.794528
