19
Iteration:   681
 O         0.174469         0.073841         0.398027
 C        -0.900577         0.731078         0.996836
 C        -1.617058         1.799664         0.106074
 C        -2.571224         2.337069         1.250116
 O        -1.849206         3.183969         2.183028
 C        -1.492769         1.912358         3.002585
 C        -0.326864         1.404795         2.367173
 C        -2.722924         1.198015         2.272481
 C        -1.988278        -0.112484         1.706610
 H         0.842542         0.760522         0.324393
 H        -0.942974         2.518916        -0.258210
 H        -2.104878         1.096742        -0.630790
 H        -3.410482         2.829571         0.674761
 H        -1.438611         2.290781         4.049826
 H         0.348655         2.228965         2.144241
 H         0.209972         0.603231         2.782825
 H        -3.705830         1.073498         2.749429
 H        -1.485975        -0.694496         2.552210
 H        -2.508232        -0.799062         1.020284
