19
Iteration:  4171charge 0 multiplicity 1
 O         0.183473         0.076731         0.359654
 C        -0.855461         0.756083         1.053257
 C        -1.719190         1.763763         0.200972
 C        -2.644174         2.248046         1.272114
 O        -1.860110         3.174972         2.242128
 C        -1.436055         1.998556         2.914289
 C        -0.141577         1.410816         2.278405
 C        -2.706204         1.124801         2.316589
 C        -2.086998        -0.013525         1.643775
 H         0.709283         0.651360        -0.207778
 H        -1.202673         2.600283        -0.311181
 H        -2.217005         1.133727        -0.587097
 H        -3.430113         2.855465         0.937062
 H        -1.275346         2.142696         4.033830
 H         0.629645         2.228774         2.256711
 H         0.160960         0.468079         2.744836
 H        -3.432755         1.092239         3.177592
 H        -1.901317        -0.790450         2.442654
 H        -2.564242        -0.591614         0.861142
