19
Iteration:  4921
 O         0.133882        -0.029841         0.294430
 C        -0.804080         0.705542         1.022007
 C        -1.588103         1.844469         0.212440
 C        -2.600668         2.258134         1.299653
 O        -2.080323         3.180422         2.258765
 C        -1.472534         2.131316         2.950060
 C        -0.119640         1.403824         2.236403
 C        -2.595564         1.145167         2.340144
 C        -1.973147        -0.045957         1.719829
 H        -0.052625        -0.050755        -0.659063
 H        -1.085972         2.718924        -0.314117
 H        -2.230214         1.333769        -0.476834
 H        -3.617415         2.617313         0.848693
 H        -1.318117         2.194805         4.030397
 H         0.538036         2.203265         2.050577
 H         0.156822         0.785497         3.070964
 H        -3.464098         1.157001         2.988125
 H        -1.785068        -0.862607         2.404047
 H        -2.576726        -0.536038         0.971086
