19
Iteration:   314
 O         0.181685         0.072979         0.254617
 C        -0.844268         0.677972         1.008698
 C        -1.482137         1.904381         0.222032
 C        -2.588095         2.343168         1.249087
 O        -1.963797         3.228190         2.227104
 C        -1.566493         2.034779         2.938773
 C        -0.362942         1.368306         2.328658
 C        -2.689907         1.110365         2.284280
 C        -1.928755        -0.113205         1.712890
 H         0.449884        -0.745631         0.713982
 H        -0.724443         2.697345        -0.076104
 H        -1.996169         1.470559        -0.603046
 H        -3.518922         2.812973         0.899572
 H        -1.413913         2.323244         3.981590
 H         0.569798         1.916512         2.282985
 H         0.066655         0.585340         2.940476
 H        -3.672159         0.944087         2.654651
 H        -1.477071        -0.673814         2.549514
 H        -2.647056        -0.768818         1.135181
