19
Iteration:  1811charge 0 multiplicity 1
 O         0.194266        -0.120501         0.462030
 C        -0.808151         0.808393         1.027619
 C        -1.794706         1.712699         0.190554
 C        -2.655162         2.255618         1.284956
 O        -1.974799         3.221661         2.087135
 C        -1.479954         2.103559         2.963974
 C        -0.209556         1.561662         2.256187
 C        -2.622669         1.116293         2.392459
 C        -1.830138        -0.021672         1.712000
 H         0.336443         0.079638        -0.474074
 H        -1.275120         2.479865        -0.416351
 H        -2.373957         0.996836        -0.391112
 H        -3.618394         2.597513         0.805714
 H        -1.308436         2.461061         3.981052
 H         0.504227         2.298802         2.067805
 H         0.203323         0.789524         2.867209
 H        -3.538664         0.851378         2.820168
 H        -1.481062        -0.972433         2.168438
 H        -2.578742        -0.357325         0.986413
