19
Iteration:  4855
 O         0.182070         0.070296         0.349437
 C        -0.828696         0.774721         1.044804
 C        -1.706171         1.728030         0.137270
 C        -2.623472         2.333269         1.341385
 O        -1.913432         3.227205         2.269724
 C        -1.502669         1.977605         2.918143
 C        -0.191521         1.451991         2.292878
 C        -2.629032         1.155464         2.330655
 C        -1.947887        -0.042904         1.641738
 H        -0.183121        -0.742063        -0.043996
 H        -1.057189         2.338459        -0.558475
 H        -2.286851         1.105187        -0.546087
 H        -3.664628         2.766965         1.007744
 H        -1.574042         2.215903         3.988834
 H         0.426609         2.272236         1.985675
 H         0.312050         0.647993         2.837346
 H        -3.463791         0.781482         2.974791
 H        -1.636895        -0.849135         2.356259
 H        -2.436119        -0.541531         0.742481
