19
Iteration:   877
 O         0.188224        -0.084348         0.332699
 C        -0.794134         0.697283         1.114948
 C        -1.550411         1.757221         0.215160
 C        -2.638451         2.279802         1.221722
 O        -2.073789         3.265857         2.303360
 C        -1.505414         2.049364         2.908354
 C        -0.166884         1.567331         2.258691
 C        -2.593714         1.119588         2.316594
 C        -1.988862        -0.025533         1.594001
 H         0.097399        -1.008472         0.603007
 H        -1.168784         2.672196        -0.182965
 H        -1.978745         1.211776        -0.611130
 H        -3.573424         2.710498         0.754779
 H        -1.411796         2.269599         3.999699
 H         0.213203         2.517210         1.845004
 H         0.441872         1.086590         3.070884
 H        -3.530472         0.744292         2.817055
 H        -1.801579        -0.911510         2.240275
 H        -2.686807        -0.252433         0.862088
