19
Iteration:  3746
 O         0.093835         0.046582         0.284928
 C        -0.830998         0.770769         1.085692
 C        -1.690190         1.744247         0.150013
 C        -2.687956         2.335130         1.286968
 O        -1.984995         3.243903         2.195575
 C        -1.457226         2.028457         2.920140
 C        -0.108481         1.430583         2.298739
 C        -2.548989         1.124631         2.304114
 C        -1.975142        -0.069126         1.758337
 H         0.481316        -0.762399         0.689155
 H        -1.123086         2.547908        -0.374653
 H        -2.256624         1.061585        -0.525514
 H        -3.662458         2.653976         0.890557
 H        -1.541136         2.238776         4.038076
 H         0.531754         2.200180         1.820695
 H         0.368833         0.618095         2.901394
 H        -3.438486         1.004640         2.887813
 H        -1.498820        -0.670500         2.455821
 H        -2.443394        -0.624713         1.004791
