19
Iteration:  2372
 O         0.137430         0.029334         0.242017
 C        -0.807686         0.742522         1.031334
 C        -1.719009         1.692608         0.229340
 C        -2.631107         2.239198         1.297824
 O        -1.916983         3.201787         2.073776
 C        -1.498760         2.096128         2.908727
 C        -0.279039         1.516610         2.266063
 C        -2.654900         1.167226         2.409187
 C        -1.820752        -0.033613         1.816980
 H         0.546259        -0.593588         0.893361
 H        -1.196554         2.538072        -0.276271
 H        -2.259611         1.099748        -0.575629
 H        -3.569063         2.677467         0.942873
 H        -1.473392         2.267621         3.997386
 H         0.354888         2.292301         2.051734
 H         0.133675         0.693257         2.821420
 H        -3.619866         0.999976         2.912684
 H        -1.418031        -0.786820         2.529709
 H        -2.514150        -0.645343         1.252970
