19
Iteration:  4665
 O         0.128989         0.073283         0.121668
 C        -0.743748         0.714352         1.062746
 C        -1.587490         1.758095         0.278444
 C        -2.688085         2.282807         1.246151
 O        -1.915018         3.224386         2.209280
 C        -1.539523         2.012291         2.954459
 C        -0.181900         1.495875         2.269069
 C        -2.639229         1.154984         2.405159
 C        -2.033026        -0.106592         1.800113
 H         0.309512        -0.868409         0.213550
 H        -0.995097         2.604739        -0.084770
 H        -2.070472         1.398304        -0.637131
 H        -3.492885         2.763646         0.768689
 H        -1.598522         2.228561         4.082626
 H         0.177493         2.491399         1.861584
 H         0.339839         0.854302         2.944853
 H        -3.582230         0.900694         2.950473
 H        -1.542957        -0.840786         2.481204
 H        -2.436895        -0.748817         1.053122
