19
Iteration:  1455charge 0 multiplicity 1
 O         0.190715         0.001217         0.328142
 C        -0.821420         0.751321         1.045737
 C        -1.628504         1.709964         0.223341
 C        -2.641881         2.216209         1.238748
 O        -1.931174         3.209043         2.074672
 C        -1.486711         2.099120         2.908307
 C        -0.266300         1.472739         2.448813
 C        -2.597292         1.175473         2.408002
 C        -2.044967        -0.109642         1.635072
 H         0.822536         0.746743         0.142340
 H        -0.959306         2.509748        -0.052776
 H        -2.068610         1.164205        -0.735019
 H        -3.541869         2.587916         0.894527
 H        -1.509164         2.153657         3.976348
 H         0.424314         2.212776         2.152478
 H         0.067682         0.901287         3.297480
 H        -3.556713         1.128771         2.954213
 H        -1.595733        -0.849014         2.272955
 H        -2.816039        -0.425165         0.879296
