19
Iteration:  2557
 O         0.195757        -0.086887         0.368698
 C        -0.757113         0.749773         1.017038
 C        -1.617194         1.754031         0.220661
 C        -2.628096         2.318454         1.282152
 O        -1.999745         3.183354         2.219231
 C        -1.479289         2.065461         2.974931
 C        -0.184837         1.536212         2.231103
 C        -2.719834         1.165006         2.333194
 C        -1.988770        -0.056469         1.699032
 H        -0.341019        -0.653082        -0.250203
 H        -0.930257         2.547413        -0.103375
 H        -2.066438         1.422319        -0.704825
 H        -3.466406         2.774907         0.678322
 H        -1.390425         2.325825         4.008965
 H         0.420654         2.361027         1.890729
 H         0.622574         0.924283         2.888679
 H        -3.543548         1.079896         3.005950
 H        -1.886660        -0.909849         2.383594
 H        -2.476844        -0.524716         0.831942
