19
Iteration:  1289
 O         0.226372        -0.096422         0.401359
 C        -0.783230         0.726817         1.045912
 C        -1.566700         1.870789         0.168798
 C        -2.604575         2.290191         1.174204
 O        -2.059255         3.258307         2.213516
 C        -1.574699         2.091704         2.930360
 C        -0.260566         1.448000         2.256105
 C        -2.620246         1.168824         2.347654
 C        -1.899784        -0.167655         1.773409
 H        -0.136465        -0.023703        -0.494994
 H        -0.946329         2.728629        -0.060719
 H        -2.101228         1.562828        -0.803484
 H        -3.569628         2.501631         0.792573
 H        -1.444864         2.051600         4.011168
 H         0.542055         2.114885         1.986760
 H        -0.001458         0.743473         3.080778
 H        -3.626554         1.241261         2.842579
 H        -1.439046        -0.794294         2.512133
 H        -2.654732        -0.579844         1.070099
