19
Iteration:   337charge 0 multiplicity 1
 O         0.074472        -0.089783         0.298734
 C        -0.746826         0.762038         1.081910
 C        -1.459813         1.885561         0.263677
 C        -2.638110         2.208899         1.241147
 O        -2.089178         3.197848         2.227470
 C        -1.491731         2.001052         2.933811
 C        -0.175528         1.491049         2.338894
 C        -2.625041         1.149887         2.302935
 C        -2.059614         0.001519         1.558343
 H         0.741511        -0.529251         0.840637
 H        -0.846369         2.819751         0.278515
 H        -1.797689         1.629219        -0.697558
 H        -3.482988         2.678236         0.747209
 H        -1.660229         2.065958         3.998113
 H         0.643367         2.203845         2.168967
 H         0.446627         0.807020         2.936879
 H        -3.468634         1.028109         3.003377
 H        -1.685041        -0.888925         2.087772
 H        -2.730802        -0.263206         0.691220
