19
Iteration:  4849charge 0 multiplicity 1
 O         0.260090         0.074090         0.333894
 C        -0.826978         0.759539         1.068998
 C        -1.724611         1.731000         0.177250
 C        -2.633411         2.338750         1.325358
 O        -1.874291         3.232394         2.266145
 C        -1.542183         2.027486         2.903395
 C        -0.211050         1.428797         2.277944
 C        -2.671750         1.074970         2.334645
 C        -1.948590        -0.015394         1.629001
 H        -0.165081        -0.702593        -0.048365
 H        -1.134044         2.371722        -0.520010
 H        -2.499061         1.159300        -0.401999
 H        -3.570294         2.804552         1.150246
 H        -1.498923         2.258238         3.976442
 H         0.473900         2.196554         1.812859
 H         0.308499         0.588355         2.772630
 H        -3.541213         0.973220         2.957829
 H        -1.688156        -0.818565         2.332859
 H        -2.570672        -0.584312         0.899803
