19
Iteration:   886charge 0 multiplicity 1
 O         0.215332        -0.078099         0.375068
 C        -0.748126         0.732808         1.077329
 C        -1.592128         1.804134         0.237856
 C        -2.663211         2.265349         1.320545
 O        -2.061463         3.218321         2.196019
 C        -1.488318         2.090977         2.942432
 C        -0.192398         1.531317         2.239364
 C        -2.646135         1.146153         2.290393
 C        -1.957839        -0.059623         1.607727
 H        -0.146218        -0.956781         0.533272
 H        -1.005906         2.751373        -0.063333
 H        -2.120803         1.373727        -0.718842
 H        -3.606047         2.632212         0.887043
 H        -1.506255         2.184872         4.063869
 H         0.492971         2.398688         1.905360
 H         0.498134         0.917634         2.922696
 H        -3.516194         0.894073         2.941598
 H        -1.908438        -1.010406         2.205203
 H        -2.607102        -0.277462         0.726252
