19
Iteration:  3088charge 0 multiplicity 1
 O         0.033503        -0.037116         0.224595
 C        -0.767672         0.745323         1.029761
 C        -1.639268         1.807896         0.245833
 C        -2.650829         2.247481         1.238068
 O        -2.035355         3.214546         2.201752
 C        -1.452422         2.083731         2.888467
 C        -0.182386         1.412523         2.238644
 C        -2.668176         1.176505         2.347003
 C        -1.847152        -0.027169         1.819283
 H         0.832008        -0.190429         0.724983
 H        -1.027940         2.494840        -0.213400
 H        -2.160993         1.118382        -0.512731
 H        -3.603970         2.532262         0.915429
 H        -1.465093         2.261822         3.967952
 H         0.585670         2.206584         1.925248
 H         0.407613         0.779457         2.874949
 H        -3.495462         1.109179         3.049240
 H        -1.447108        -0.584944         2.659788
 H        -2.535048        -0.637375         1.219882
