19
Iteration:  3246charge 0 multiplicity 1
 O         0.102193         0.128605         0.283976
 C        -0.832332         0.749198         1.017835
 C        -1.770961         1.718020         0.193226
 C        -2.644545         2.268670         1.267877
 O        -1.909578         3.246167         2.119602
 C        -1.408116         2.095054         2.933064
 C        -0.175037         1.361283         2.296669
 C        -2.623222         1.147410         2.349558
 C        -1.919244        -0.091472         1.789229
 H         0.747006        -0.172604         0.914724
 H        -1.137132         2.472922        -0.500369
 H        -2.404361         1.092473        -0.480263
 H        -3.656451         2.548164         0.957588
 H        -1.527232         2.265214         3.973486
 H         0.601317         2.086021         2.218224
 H        -0.051744         0.487302         3.009671
 H        -3.565134         0.955121         2.819718
 H        -1.488084        -0.820262         2.517296
 H        -2.542630        -0.596198         1.061295
