19
Iteration:  2748
 O         0.122012         0.064155         0.346231
 C        -0.797523         0.743728         1.094724
 C        -1.639358         1.640148         0.187110
 C        -2.607376         2.263240         1.249244
 O        -1.900765         3.294111         2.196774
 C        -1.477224         2.076142         2.988704
 C        -0.215449         1.381306         2.265201
 C        -2.640080         1.163443         2.282964
 C        -1.995923        -0.092361         1.724177
 H         0.208508         0.541008        -0.501855
 H        -1.179312         2.495115        -0.258742
 H        -2.176130         1.106972        -0.605368
 H        -3.507954         2.547495         0.854101
 H        -1.462783         2.323034         4.089505
 H         0.516458         2.227701         1.961783
 H         0.153453         0.634606         3.028006
 H        -3.524152         1.033039         2.971872
 H        -1.939577        -0.869341         2.463194
 H        -2.573673        -0.595324         0.935065
