19
Iteration:  2505
 O         0.086639        -0.020722         0.315729
 C        -0.840651         0.751845         1.065333
 C        -1.609957         1.796134         0.269880
 C        -2.664453         2.261752         1.258405
 O        -1.959482         3.207860         2.123465
 C        -1.424500         2.039210         2.872961
 C        -0.173004         1.469327         2.250414
 C        -2.704104         1.128652         2.327260
 C        -1.987896        -0.095594         1.794502
 H         0.734927         0.715359         0.158133
 H        -0.868855         2.650753        -0.026591
 H        -1.803255         1.260947        -0.669105
 H        -3.559283         2.586279         0.809214
 H        -1.353219         2.236999         4.013156
 H         0.656990         2.123779         2.008317
 H         0.404745         0.854795         2.975365
 H        -3.577399         1.091901         2.888060
 H        -1.631383        -0.690534         2.666582
 H        -2.617978        -0.763023         1.206594
