19
Iteration:  2619
 O         0.135132         0.071282         0.252589
 C        -0.747475         0.764217         1.101338
 C        -1.648983         1.698194         0.275447
 C        -2.623989         2.266233         1.272326
 O        -1.872692         3.243676         2.125870
 C        -1.506950         2.000138         2.939322
 C        -0.216425         1.483733         2.398917
 C        -2.657131         1.148874         2.305294
 C        -1.988955        -0.058156         1.644201
 H        -0.219061        -0.847002         0.169171
 H        -1.141644         2.456014        -0.265744
 H        -2.238035         1.020707        -0.458589
 H        -3.509685         2.797185         0.778177
 H        -1.554839         2.075358         4.034354
 H         0.449649         2.392679         2.267569
 H         0.294679         0.766290         2.967479
 H        -3.534848         1.107461         3.078109
 H        -1.836068        -0.765592         2.449342
 H        -2.646937        -0.391680         0.805089
