19
Iteration:  3939
 O         0.172811         0.026044         0.291753
 C        -0.789946         0.767936         1.056130
 C        -1.573805         1.783157         0.187141
 C        -2.587304         2.308012         1.313008
 O        -1.955312         3.197520         2.184486
 C        -1.425533         1.940131         2.977222
 C        -0.245911         1.466492         2.236518
 C        -2.697206         1.144811         2.368780
 C        -2.080289        -0.063670         1.785642
 H        -0.071017         0.190418        -0.653659
 H        -1.125413         2.716836        -0.021385
 H        -2.044412         1.297304        -0.759531
 H        -3.429886         2.601741         0.743906
 H        -1.332009         2.108432         4.049279
 H         0.457826         2.268328         1.871084
 H         0.250899         0.799677         2.856480
 H        -3.563226         1.127123         2.995558
 H        -1.671749        -0.970670         2.400262
 H        -2.574231        -0.597011         0.938669
