19
Iteration:  1800charge 0 multiplicity 1
 O         0.260568        -0.175873         0.450226
 C        -0.716709         0.697740         1.006885
 C        -1.719082         1.778534         0.223088
 C        -2.728025         2.254017         1.301401
 O        -2.070264         3.232104         2.118343
 C        -1.508780         2.138220         2.908570
 C        -0.194142         1.492843         2.233171
 C        -2.570950         1.179478         2.414730
 C        -1.899745         0.018757         1.669500
 H         0.098604        -0.074516        -0.502901
 H        -1.393166         2.670215        -0.378156
 H        -2.421661         1.313150        -0.516004
 H        -3.752588         2.642090         1.004529
 H        -1.401653         2.260357         3.987021
 H         0.457770         2.203438         1.861551
 H         0.284716         0.897641         2.969096
 H        -3.406335         0.908147         2.978865
 H        -1.427266        -0.532853         2.546778
 H        -2.455443        -0.624161         0.995406
