19
Iteration:  4679charge 0 multiplicity 1
 O         0.083598         0.181047         0.137436
 C        -0.860417         0.723209         1.083925
 C        -1.590653         1.755022         0.239393
 C        -2.560113         2.274033         1.295907
 O        -1.946535         3.164796         2.148180
 C        -1.466836         2.043976         2.959700
 C        -0.210959         1.465578         2.328686
 C        -2.684329         1.115082         2.306910
 C        -1.940030        -0.117087         1.771781
 H         0.228841        -0.689501         0.559775
 H        -0.998990         2.546910        -0.139463
 H        -2.107219         1.138106        -0.513933
 H        -3.581387         2.644988         0.896438
 H        -1.303272         2.257976         4.011169
 H         0.521579         2.163188         2.065451
 H         0.370950         0.761798         2.922004
 H        -3.609658         1.135956         2.969405
 H        -1.644069        -0.649274         2.706063
 H        -2.735815        -0.671571         1.232452
