19
Iteration:  4530
 O         0.155838         0.019167         0.290186
 C        -0.773478         0.723824         1.058566
 C        -1.705006         1.832566         0.254281
 C        -2.686062         2.269703         1.379311
 O        -1.944767         3.168077         2.172009
 C        -1.424114         2.057854         2.937565
 C        -0.230520         1.521865         2.234838
 C        -2.597129         1.103858         2.342927
 C        -2.002686        -0.039199         1.608252
 H         0.259192        -0.885209         0.624829
 H        -0.973234         2.676932        -0.001992
 H        -2.128778         1.386577        -0.675870
 H        -3.607044         2.605031         0.906386
 H        -1.469997         2.158936         4.048258
 H         0.542205         2.280345         1.793776
 H         0.258429         0.930887         3.083227
 H        -3.345694         0.897148         3.082914
 H        -1.643747        -0.885385         2.268986
 H        -2.666087        -0.519426         0.808354
