19
Iteration:   397charge 0 multiplicity 1
 O         0.177861         0.066955         0.347207
 C        -0.822842         0.750461         1.097555
 C        -1.542411         1.863704         0.186318
 C        -2.576668         2.367647         1.218673
 O        -1.896822         3.159295         2.200540
 C        -1.573575         1.959795         2.963890
 C        -0.312356         1.297826         2.356792
 C        -2.761057         1.150390         2.231538
 C        -1.952776        -0.071519         1.728261
 H         0.869885         0.509240        -0.176107
 H        -0.940356         2.676047        -0.147729
 H        -1.982382         1.345527        -0.698901
 H        -3.438295         2.970777         0.896717
 H        -1.493787         2.133440         4.052127
 H         0.324494         2.108908         2.044440
 H         0.076357         0.350933         2.769400
 H        -3.708033         1.106922         2.707686
 H        -1.657862        -0.718996         2.553934
 H        -2.473403        -0.642892         0.969115
