19
Iteration:  3586
 O        -0.042813        -0.114270         0.239012
 C        -0.805990         0.785753         1.013175
 C        -1.532653         1.814129         0.208816
 C        -2.623088         2.243032         1.223451
 O        -2.075633         3.177097         2.229176
 C        -1.520018         2.010817         2.991608
 C        -0.167102         1.528244         2.207614
 C        -2.585743         1.191222         2.451275
 C        -1.835087        -0.020419         1.703908
 H         0.671645        -0.467056         0.825334
 H        -0.905735         2.761109         0.217972
 H        -1.984745         1.449526        -0.650568
 H        -3.503558         2.615306         0.632630
 H        -1.467805         2.291748         4.004248
 H         0.521757         2.270673         1.821939
 H         0.557668         0.881007         2.866949
 H        -3.549425         1.202140         2.905765
 H        -1.597707        -0.793314         2.490458
 H        -2.448779        -0.571147         0.918385
