19
Iteration:  4297charge 0 multiplicity 1
 O         0.211484         0.147310         0.357628
 C        -0.868221         0.777206         1.068550
 C        -1.724165         1.732751         0.208286
 C        -2.652638         2.404118         1.337518
 O        -1.822895         3.146806         2.189755
 C        -1.492062         1.958196         2.907250
 C        -0.229667         1.455680         2.280181
 C        -2.651612         1.138478         2.301269
 C        -1.982911        -0.115456         1.672088
 H        -0.200037        -0.571027        -0.181177
 H        -1.185434         2.412490        -0.450631
 H        -2.479812         1.115358        -0.386480
 H        -3.646012         2.880705         0.988781
 H        -1.384238         2.047152         3.983283
 H         0.353871         2.236222         1.984080
 H         0.439638         0.784777         2.743230
 H        -3.341951         0.964422         3.147248
 H        -1.762540        -0.802301         2.534466
 H        -2.213966        -0.694428         0.707606
