19
Iteration:  2255
 O         0.216571         0.034154         0.260281
 C        -0.884933         0.653037         1.031875
 C        -1.728000         1.673466         0.236624
 C        -2.638746         2.189363         1.313443
 O        -2.043536         3.263168         2.106357
 C        -1.455617         2.160401         2.914748
 C        -0.191425         1.626200         2.197058
 C        -2.534420         1.147825         2.394271
 C        -1.929790        -0.114607         1.814119
 H         0.514254        -0.792986         0.724186
 H        -1.045739         2.384699        -0.299668
 H        -2.367703         1.211467        -0.434666
 H        -3.534176         2.555010         0.883103
 H        -1.426358         2.336572         4.044726
 H         0.489978         2.450523         1.691178
 H         0.270574         0.861355         2.856922
 H        -3.311896         0.965508         3.045297
 H        -1.798489        -0.775451         2.700190
 H        -2.629495        -0.692038         1.214910
