19
Iteration:  1179
 O         0.266473         0.076653         0.328871
 C        -0.762613         0.716909         1.144953
 C        -1.576418         1.726233         0.274992
 C        -2.638531         2.198485         1.251139
 O        -1.970965         3.244187         2.130357
 C        -1.489303         2.114105         2.891664
 C        -0.226393         1.454790         2.286021
 C        -2.707698         1.149490         2.363784
 C        -2.051608        -0.107651         1.688443
 H        -0.175295        -0.491087        -0.326178
 H        -0.969848         2.580065         0.093434
 H        -2.126288         1.390389        -0.576392
 H        -3.518441         2.464659         0.682386
 H        -1.363947         2.348501         3.935736
 H         0.438568         2.284144         1.951094
 H         0.304887         0.763583         3.098978
 H        -3.615840         1.032295         2.952811
 H        -1.975815        -0.946698         2.375344
 H        -2.713022        -0.301626         0.782831
