19
Iteration:  3625charge 0 multiplicity 1
 O         0.159262         0.141722         0.211849
 C        -0.843669         0.669395         1.124182
 C        -1.747672         1.688062         0.300847
 C        -2.619556         2.311079         1.228067
 O        -1.912621         3.263434         2.148968
 C        -1.479383         2.082615         2.927098
 C        -0.185999         1.390722         2.262684
 C        -2.677925         1.182024         2.386992
 C        -1.958356        -0.109467         1.701941
 H         0.603221        -0.536645         0.728547
 H        -1.040984         2.387558        -0.193603
 H        -2.187234         1.028478        -0.571566
 H        -3.543447         2.766181         0.862538
 H        -1.355557         2.171304         4.094367
 H         0.499904         2.173069         1.845635
 H         0.270415         0.716280         2.922815
 H        -3.460285         0.975676         3.182640
 H        -1.434030        -0.851315         2.313432
 H        -2.576434        -0.592717         0.980158
