19
Iteration:  2482charge 0 multiplicity 1
 O         0.166944         0.035670         0.183960
 C        -0.805225         0.688925         1.080763
 C        -1.696593         1.701885         0.206529
 C        -2.625686         2.272354         1.228290
 O        -1.919234         3.215331         2.095512
 C        -1.509097         2.088292         2.989578
 C        -0.282493         1.490367         2.317022
 C        -2.629287         1.146360         2.439145
 C        -1.966116        -0.055230         1.761534
 H         0.878659        -0.187409         0.797393
 H        -1.036968         2.556693        -0.201085
 H        -2.127054         1.213226        -0.682046
 H        -3.527683         2.706342         0.826600
 H        -1.300812         2.362394         4.059936
 H         0.444190         2.243944         2.252705
 H         0.347519         0.737481         2.883168
 H        -3.531654         0.990738         2.923555
 H        -1.692081        -0.871973         2.460736
 H        -2.672434        -0.478953         1.050284
