19
Iteration:  1749charge 0 multiplicity 1
 O         0.161794        -0.012435         0.218883
 C        -0.778717         0.754757         1.045636
 C        -1.597460         1.671912         0.205214
 C        -2.688207         2.223220         1.235453
 O        -1.974070         3.232642         2.113130
 C        -1.523644         2.076629         2.971327
 C        -0.226055         1.613024         2.353174
 C        -2.640487         1.165200         2.358572
 C        -1.889318        -0.080356         1.824020
 H        -0.242211        -0.888637         0.193580
 H        -1.035835         2.416087        -0.261074
 H        -2.108048         1.122101        -0.635323
 H        -3.654521         2.565910         0.903010
 H        -1.482711         2.255895         4.025280
 H         0.342643         2.532245         2.077914
 H         0.473902         1.009525         3.032759
 H        -3.587310         0.974414         2.880203
 H        -1.487932        -0.704886         2.565269
 H        -2.517103        -0.610880         1.106719
