19
Iteration:   438
 O         0.172957        -0.039706         0.325821
 C        -0.761805         0.748264         1.065707
 C        -1.495953         1.831323         0.240272
 C        -2.598919         2.280481         1.236259
 O        -1.967649         3.198497         2.199837
 C        -1.581438         2.059573         3.017936
 C        -0.249417         1.346752         2.373464
 C        -2.688132         1.158084         2.353189
 C        -2.020631        -0.033989         1.551240
 H         0.511059         0.519225        -0.411420
 H        -0.983087         2.748981        -0.038264
 H        -1.929587         1.372891        -0.636580
 H        -3.400235         2.701124         0.618087
 H        -1.581366         2.383580         4.077909
 H         0.650010         2.061209         2.323509
 H         0.127595         0.654125         3.159623
 H        -3.696191         0.968214         2.848991
 H        -1.950105        -1.099302         2.025853
 H        -2.701876        -0.259479         0.697745
