19
Iteration:  1279
 O         0.219660        -0.096617         0.389684
 C        -0.835790         0.632231         1.006612
 C        -1.490633         1.895258         0.165833
 C        -2.581663         2.278244         1.206620
 O        -2.172053         3.269726         2.219347
 C        -1.457585         2.120996         2.908161
 C        -0.333940         1.418702         2.257468
 C        -2.597360         1.117451         2.398374
 C        -1.943783        -0.033026         1.772937
 H         0.230212        -0.068696        -0.585876
 H        -0.747177         2.606380        -0.052916
 H        -1.860239         1.717905        -0.827393
 H        -3.467493         2.556921         0.714617
 H        -1.557357         2.405467         3.928705
 H         0.451423         2.128178         1.969445
 H         0.182124         0.618586         2.940975
 H        -3.496320         0.902423         3.079576
 H        -1.525823        -0.741416         2.467139
 H        -2.513323        -0.771569         1.162268
