19
Iteration:   189
 O         0.100315        -0.093025         0.404389
 C        -0.759892         0.824951         1.014854
 C        -1.559581         1.835518         0.229045
 C        -2.572184         2.335547         1.234541
 O        -1.907426         3.144196         2.204845
 C        -1.563566         1.988817         3.037086
 C        -0.209990         1.500289         2.430495
 C        -2.713831         1.104559         2.227125
 C        -2.002691        -0.056820         1.556668
 H         0.317992         0.232271        -0.466891
 H        -0.901215         2.603705        -0.057056
 H        -2.104233         1.319717        -0.647599
 H        -3.449845         2.832477         0.769064
 H        -1.626601         2.221247         4.137385
 H         0.339945         2.420766         2.219892
 H         0.217095         0.740625         3.038473
 H        -3.724268         1.028256         2.757240
 H        -1.523668        -0.845037         2.180719
 H        -2.475352        -0.491700         0.697551
