19
Iteration:  2511
 O         0.068928        -0.037154         0.348781
 C        -0.856560         0.735350         1.101049
 C        -1.593702         1.763460         0.266659
 C        -2.629058         2.282812         1.236593
 O        -1.995845         3.248490         2.141238
 C        -1.416060         2.050415         2.909824
 C        -0.164322         1.501916         2.230975
 C        -2.688691         1.089772         2.323361
 C        -1.966909        -0.082383         1.761217
 H         0.634718         0.604929        -0.134760
 H        -1.010162         2.580135         0.010472
 H        -1.925033         1.334433        -0.700528
 H        -3.556574         2.781904         0.743022
 H        -1.125871         2.239995         3.896213
 H         0.675383         2.261555         2.187490
 H         0.251942         0.575100         2.791544
 H        -3.717026         0.961492         2.850036
 H        -1.562507        -0.703456         2.561918
 H        -2.484916        -0.833947         1.125727
