19
Iteration:   384charge 0 multiplicity 1
 O         0.181110        -0.061665         0.346124
 C        -0.846983         0.730233         0.944129
 C        -1.536175         1.871702         0.160457
 C        -2.575375         2.369089         1.235417
 O        -1.946864         3.202016         2.300570
 C        -1.592341         1.905070         2.978719
 C        -0.301186         1.382072         2.314236
 C        -2.664272         1.201839         2.195103
 C        -1.985703        -0.045212         1.717197
 H         0.801848         0.687089         0.359752
 H        -0.792580         2.523210        -0.121997
 H        -2.047237         1.502207        -0.703736
 H        -3.531039         2.693513         0.834800
 H        -1.608559         2.003187         4.082783
 H         0.428730         2.203412         2.301126
 H         0.262737         0.748760         3.004493
 H        -3.677101         0.987627         2.640768
 H        -1.460412        -0.450975         2.603413
 H        -2.529494        -0.844384         1.231938
