19
Iteration:  3018
 O         0.163783         0.010676         0.410670
 C        -0.849471         0.754932         1.044950
 C        -1.732618         1.776689         0.194699
 C        -2.686654         2.348716         1.266824
 O        -1.902633         3.242135         2.165368
 C        -1.476338         2.069282         2.850496
 C        -0.229310         1.403015         2.279976
 C        -2.596243         1.122447         2.354026
 C        -1.896422        -0.178438         1.763356
 H         0.068316         0.321767        -0.494146
 H        -1.183536         2.668180        -0.431191
 H        -2.379433         1.137472        -0.454347
 H        -3.688569         2.917556         0.908365
 H        -1.347860         2.330611         3.946271
 H         0.610950         2.022064         2.033273
 H         0.269211         0.761272         3.037406
 H        -3.596696         0.974734         2.821171
 H        -1.176386        -0.731837         2.420858
 H        -2.572975        -0.725373         1.075946
