19
Iteration:  4557
 O         0.105859         0.127090         0.141457
 C        -0.812563         0.788985         1.025020
 C        -1.685383         1.752395         0.171335
 C        -2.606320         2.256225         1.299090
 O        -1.927976         3.179370         2.176092
 C        -1.477606         2.066556         2.990064
 C        -0.217634         1.368558         2.373243
 C        -2.654465         1.170114         2.352680
 C        -1.955952        -0.066366         1.758102
 H         0.653435        -0.448549         0.697796
 H        -1.057833         2.476402        -0.317383
 H        -2.238760         1.117799        -0.548235
 H        -3.512337         2.634616         0.786928
 H        -1.649768         2.206670         4.082601
 H         0.657209         1.994476         2.104753
 H         0.206751         0.681870         3.049587
 H        -3.569857         1.128333         3.016330
 H        -1.316426        -0.721672         2.413659
 H        -2.528486        -0.719651         1.116218
