19
Iteration:   262charge 0 multiplicity 1
 O         0.180586         0.089365         0.338725
 C        -0.827397         0.751778         1.050529
 C        -1.610012         1.800059         0.232462
 C        -2.611133         2.261235         1.264417
 O        -1.864930         3.207005         2.166632
 C        -1.530101         1.996859         2.971208
 C        -0.263984         1.429572         2.387026
 C        -2.673708         1.133715         2.319040
 C        -2.016233        -0.072072         1.524099
 H         0.369891        -0.652920         0.960516
 H        -1.023335         2.706901         0.066739
 H        -2.009484         1.329561        -0.707795
 H        -3.493208         2.748428         0.875695
 H        -1.557629         2.312817         4.024459
 H         0.473412         2.233285         2.136265
 H         0.216384         0.544105         2.927245
 H        -3.623590         1.003477         2.926525
 H        -1.784957        -0.925847         2.178955
 H        -2.649017        -0.368467         0.663016
