19
Iteration:  2645charge 0 multiplicity 1
 O         0.158912         0.004856         0.353596
 C        -0.861800         0.718454         1.007939
 C        -1.545878         1.872427         0.187848
 C        -2.605769         2.316412         1.212482
 O        -1.981933         3.181675         2.232083
 C        -1.462590         2.051573         2.962088
 C        -0.309795         1.445757         2.208418
 C        -2.664754         1.104542         2.349170
 C        -1.935173        -0.058274         1.748392
 H        -0.096677        -0.940703         0.238936
 H        -0.750948         2.604520        -0.153114
 H        -2.087137         1.487307        -0.647441
 H        -3.508807         2.874674         0.744463
 H        -1.300574         2.210133         4.019810
 H         0.453647         2.122029         1.935289
 H         0.388137         0.764727         2.765613
 H        -3.533216         0.986584         2.903346
 H        -1.513902        -0.587485         2.631255
 H        -2.680179        -0.631317         1.201750
