19
Iteration:  1876
 O         0.106472        -0.031770         0.238452
 C        -0.826256         0.682986         1.065890
 C        -1.644931         1.718783         0.199084
 C        -2.665131         2.186386         1.199550
 O        -2.125435         3.268373         2.140265
 C        -1.426254         2.163004         2.912926
 C        -0.204094         1.531136         2.326479
 C        -2.521643         1.148890         2.371514
 C        -1.872999        -0.043798         1.799022
 H         0.752401        -0.478161         0.838924
 H        -1.081070         2.527966        -0.314635
 H        -2.169067         1.168591        -0.559104
 H        -3.726277         2.467477         0.962866
 H        -1.392163         2.447479         3.958973
 H         0.588234         2.219116         2.037547
 H         0.182845         0.787051         3.054177
 H        -3.366382         1.078713         2.961541
 H        -1.331494        -0.826396         2.459409
 H        -2.650993        -0.539454         1.164495
