19
Iteration:  1378charge 0 multiplicity 1
 O         0.193337        -0.060844         0.388080
 C        -0.752412         0.726320         1.101528
 C        -1.530469         1.792769         0.233191
 C        -2.659172         2.245088         1.253750
 O        -2.097126         3.231845         2.165224
 C        -1.496070         2.047083         2.907387
 C        -0.154043         1.531703         2.333061
 C        -2.604163         1.153279         2.264845
 C        -2.033431        -0.055959         1.682287
 H        -0.264296        -0.346669        -0.413688
 H        -0.807896         2.535214        -0.051481
 H        -2.037741         1.508838        -0.781817
 H        -3.507738         2.621959         0.791180
 H        -1.509035         2.255192         3.955569
 H         0.577915         2.241855         1.966951
 H         0.207368         0.800399         3.081783
 H        -3.435903         0.956575         3.001856
 H        -1.734461        -0.753551         2.471503
 H        -2.694706        -0.556407         0.943784
