19
Iteration:  4541
 O         0.171038         0.037801         0.205764
 C        -0.769003         0.736619         1.048469
 C        -1.706241         1.810855         0.256516
 C        -2.708543         2.296813         1.290617
 O        -1.902299         3.220930         2.151948
 C        -1.518342         1.998904         2.930014
 C        -0.240949         1.469246         2.276830
 C        -2.626267         1.115678         2.433884
 C        -1.918606        -0.067039         1.673739
 H         0.420377        -0.760572         0.687107
 H        -1.130012         2.742537        -0.129895
 H        -2.104898         1.244363        -0.605103
 H        -3.656900         2.780340         1.071419
 H        -1.223054         2.382460         3.920877
 H         0.534095         2.313220         2.333863
 H         0.251059         0.587799         2.889744
 H        -3.483923         0.788444         2.978159
 H        -1.796090        -0.870303         2.433288
 H        -2.679125        -0.393618         0.893889
