19
Iteration:  1322charge 0 multiplicity 1
 O         0.212341         0.119486         0.397211
 C        -0.762910         0.791690         1.187530
 C        -1.656999         1.714949         0.184943
 C        -2.617807         2.267198         1.176557
 O        -1.847504         3.140902         2.115901
 C        -1.578293         1.958202         2.969517
 C        -0.217350         1.511337         2.335419
 C        -2.722337         1.176002         2.324366
 C        -1.982708        -0.052464         1.670320
 H        -0.330027        -0.540389        -0.117779
 H        -1.117146         2.468299        -0.364421
 H        -2.319280         0.966343        -0.481678
 H        -3.441380         2.798482         0.767247
 H        -1.433652         2.143921         4.045700
 H         0.435026         2.289938         1.980122
 H         0.471232         0.992962         3.050226
 H        -3.718725         1.084169         2.877544
 H        -1.734564        -0.999184         2.154515
 H        -2.604142        -0.485755         0.826987
