19
Iteration:  4109charge 0 multiplicity 1
 O         0.055194        -0.119423         0.276113
 C        -0.732133         0.731250         1.031684
 C        -1.511468         1.862761         0.234247
 C        -2.591928         2.333768         1.210836
 O        -2.111865         3.195635         2.316640
 C        -1.493198         1.950405         2.955527
 C        -0.160159         1.419769         2.241109
 C        -2.629145         1.177793         2.317964
 C        -1.994903         0.023776         1.738112
 H         0.313083         0.308181        -0.549865
 H        -0.853071         2.718493        -0.201387
 H        -2.145689         1.559853        -0.547642
 H        -3.575599         2.762139         0.828969
 H        -1.260623         2.108436         4.051588
 H         0.375597         2.308101         1.998715
 H         0.569281         0.805295         2.825218
 H        -3.424075         0.838737         2.978802
 H        -1.718692        -0.724366         2.558965
 H        -2.452046        -0.622748         0.951028
