19
Iteration:   778charge 0 multiplicity 1
 O         0.253837        -0.046704         0.421460
 C        -0.806414         0.745924         1.052679
 C        -1.634627         1.772098         0.193760
 C        -2.577307         2.373960         1.255707
 O        -1.976884         3.216026         2.197791
 C        -1.522052         1.996715         2.944491
 C        -0.235852         1.470831         2.231896
 C        -2.689476         1.119428         2.280212
 C        -2.008764        -0.083769         1.707269
 H         0.465315         0.214538        -0.482352
 H        -0.979323         2.573579         0.020607
 H        -2.273120         1.361064        -0.678581
 H        -3.547878         2.801787         0.888174
 H        -1.388365         2.085475         4.058707
 H         0.445662         2.340389         2.158111
 H         0.154234         0.725632         2.940378
 H        -3.660501         1.007659         2.801024
 H        -1.735283        -0.766207         2.532830
 H        -2.639948        -0.516493         0.991113
