19
Iteration:   125
 O         0.113288         0.093836         0.239040
 C        -0.750967         0.740394         1.082137
 C        -1.470497         1.785307         0.246308
 C        -2.551355         2.324703         1.203074
 O        -1.893115         3.161799         2.250366
 C        -1.607222         1.915309         2.954834
 C        -0.322256         1.411714         2.446456
 C        -2.706387         1.153493         2.234692
 C        -2.029996         0.007899         1.616478
 H         0.416578        -0.770303         0.521223
 H        -0.832176         2.558398        -0.127352
 H        -1.851480         1.165169        -0.578040
 H        -3.435683         2.812904         0.701246
 H        -1.639870         2.184815         4.042807
 H         0.335471         2.301784         2.264822
 H         0.358211         0.839206         3.174934
 H        -3.700959         1.109877         2.771055
 H        -1.706427        -0.758188         2.362115
 H        -2.628339        -0.314627         0.752582
