19
Iteration:  4309charge 0 multiplicity 1
 O         0.227301         0.098329         0.331177
 C        -0.835634         0.740853         1.053044
 C        -1.768853         1.767207         0.263178
 C        -2.635148         2.346535         1.251834
 O        -1.824218         3.187346         2.187452
 C        -1.493765         1.976922         2.965068
 C        -0.236151         1.458289         2.267411
 C        -2.647443         1.094183         2.359658
 C        -1.950700        -0.096046         1.684401
 H        -0.171580        -0.257665        -0.502263
 H        -1.173663         2.479028        -0.235026
 H        -2.363271         1.206570        -0.541542
 H        -3.470088         3.013489         0.866026
 H        -1.594296         2.183657         4.010513
 H         0.285626         2.329480         1.961928
 H         0.336755         0.800530         2.859369
 H        -3.599653         0.908199         2.952286
 H        -1.424217        -0.897442         2.219164
 H        -2.876339        -0.507412         1.108806
