19
Iteration:  1988
 O         0.021070        -0.006485         0.313467
 C        -0.778892         0.741827         1.091715
 C        -1.706957         1.664972         0.230178
 C        -2.706859         2.199693         1.256750
 O        -1.918911         3.152174         2.018012
 C        -1.479618         2.123553         2.898649
 C        -0.252494         1.608682         2.289948
 C        -2.581909         1.136342         2.396614
 C        -1.857353        -0.062619         1.805229
 H         0.906563         0.383394         0.291752
 H        -1.273848         2.510924        -0.138088
 H        -2.034444         1.114576        -0.665526
 H        -3.700517         2.595701         0.954321
 H        -1.228019         2.387045         3.914375
 H         0.350502         2.409472         2.038229
 H         0.397360         1.005963         2.869564
 H        -3.364298         0.923790         3.186760
 H        -1.343730        -0.582602         2.623870
 H        -2.409871        -0.751429         1.111284
