19
Iteration:   861
 O         0.106980        -0.055953         0.247681
 C        -0.765667         0.737894         1.058355
 C        -1.480916         1.724687         0.198103
 C        -2.539919         2.313612         1.228276
 O        -2.094602         3.192885         2.309439
 C        -1.529440         2.049358         2.978565
 C        -0.247847         1.603985         2.239055
 C        -2.666380         1.184056         2.301498
 C        -1.962741        -0.093268         1.695920
 H         0.476898        -0.664709         0.922689
 H        -0.686045         2.385005        -0.379622
 H        -2.186039         1.220801        -0.657920
 H        -3.418025         2.686495         0.747477
 H        -1.551095         2.034413         4.081128
 H         0.401370         2.477211         1.945728
 H         0.395599         0.993709         2.899554
 H        -3.542963         1.259815         2.930710
 H        -1.627767        -0.851167         2.449146
 H        -2.576816        -0.691176         0.875092
