19
Iteration:  3492
 O         0.084102         0.066148         0.194026
 C        -0.751989         0.725889         1.045792
 C        -1.621543         1.760480         0.268739
 C        -2.666217         2.202674         1.309576
 O        -1.862972         3.212434         2.085773
 C        -1.505700         2.077155         2.955480
 C        -0.197905         1.454953         2.336156
 C        -2.684569         1.132307         2.346628
 C        -2.031999        -0.035895         1.737598
 H         0.760176        -0.481479         0.580845
 H        -1.175201         2.626506        -0.125371
 H        -2.143989         1.072090        -0.497548
 H        -3.587905         2.675286         1.018245
 H        -1.469984         2.195730         4.076537
 H         0.430559         2.324123         2.119023
 H         0.322991         0.908723         3.065191
 H        -3.519088         1.021042         3.041424
 H        -1.582714        -0.715045         2.396413
 H        -2.481577        -0.608919         0.964083
