19
Iteration:   295
 O         0.223276         0.203576         0.237088
 C        -0.812198         0.717637         1.071362
 C        -1.624990         1.665264         0.224956
 C        -2.535607         2.360277         1.179600
 O        -1.881731         3.206629         2.244961
 C        -1.618695         1.914874         2.982604
 C        -0.245502         1.395067         2.389745
 C        -2.699274         1.213204         2.229338
 C        -2.020896        -0.081012         1.705329
 H         0.231192        -0.737353         0.415785
 H        -1.018135         2.428042        -0.201794
 H        -2.078991         1.107389        -0.587002
 H        -3.401941         2.821833         0.723173
 H        -1.686401         2.022618         4.088215
 H         0.485663         2.212542         2.237933
 H         0.350990         0.732133         3.041014
 H        -3.653120         1.282570         2.847367
 H        -1.922088        -0.741059         2.583987
 H        -2.506589        -0.624016         0.865967
