19
Iteration:  1369
 O         0.247379        -0.017144         0.404283
 C        -0.788072         0.749966         1.020818
 C        -1.541036         1.812349         0.253484
 C        -2.681960         2.315231         1.223148
 O        -2.091215         3.228558         2.171741
 C        -1.487209         2.103255         2.843425
 C        -0.215648         1.395965         2.297513
 C        -2.625025         1.161643         2.313455
 C        -1.972397        -0.101819         1.759542
 H        -0.157775        -0.476336        -0.349177
 H        -0.844244         2.620813        -0.023144
 H        -2.014523         1.336219        -0.631230
 H        -3.631649         2.577324         0.783337
 H        -1.459186         2.180162         3.902173
 H         0.649699         2.144913         2.238538
 H         0.276192         0.627001         3.007960
 H        -3.520373         1.142133         2.977595
 H        -1.896324        -0.916252         2.466898
 H        -2.587783        -0.570055         1.002584
