19
Iteration:  1217
 O         0.241713         0.043932         0.398216
 C        -0.859482         0.800862         1.045705
 C        -1.671669         1.724123         0.136049
 C        -2.552143         2.199756         1.207489
 O        -1.869798         3.213707         2.181936
 C        -1.603045         2.050715         2.949700
 C        -0.299470         1.441153         2.291183
 C        -2.690834         1.164213         2.311320
 C        -1.921267        -0.052903         1.805043
 H         0.107621         0.153291        -0.567980
 H        -1.129589         2.596577        -0.374584
 H        -2.312661         1.078654        -0.582039
 H        -3.489533         2.696004         0.859166
 H        -1.453354         2.231174         4.061139
 H         0.530903         2.156082         2.191667
 H         0.075898         0.560132         2.817120
 H        -3.682961         1.132676         2.881311
 H        -1.522917        -0.716934         2.626989
 H        -2.319302        -0.660575         0.978912
