19
Iteration:   969
 O         0.115322        -0.039594         0.335843
 C        -0.822307         0.742234         1.057393
 C        -1.636428         1.763368         0.219572
 C        -2.606223         2.248981         1.222350
 O        -1.992220         3.194902         2.158144
 C        -1.486878         2.067638         2.971316
 C        -0.217416         1.513481         2.340128
 C        -2.646614         1.190042         2.314631
 C        -1.942290        -0.120890         1.706486
 H         0.819305         0.623846         0.149751
 H        -0.985127         2.538270        -0.207765
 H        -2.010551         1.304314        -0.674598
 H        -3.545961         2.631260         0.780925
 H        -1.404621         2.106891         4.053777
 H         0.387424         2.397381         2.056012
 H         0.259908         0.665153         2.883517
 H        -3.583659         0.986167         2.813505
 H        -1.330054        -0.726493         2.382905
 H        -2.710022        -0.592107         1.003938
