19
Iteration:  1875charge 0 multiplicity 1
 O         0.112780        -0.032218         0.230228
 C        -0.828131         0.673045         1.070340
 C        -1.642321         1.719655         0.200093
 C        -2.670577         2.186040         1.200685
 O        -2.121677         3.277787         2.141964
 C        -1.426365         2.158207         2.907355
 C        -0.207461         1.532211         2.324072
 C        -2.532936         1.150454         2.375553
 C        -1.873989        -0.050850         1.797637
 H         0.782772        -0.440708         0.822401
 H        -1.075101         2.539533        -0.347553
 H        -2.147579         1.179531        -0.554442
 H        -3.724525         2.464303         0.963749
 H        -1.399474         2.444418         3.968225
 H         0.643857         2.226004         2.038672
 H         0.161033         0.788461         3.099266
 H        -3.378687         1.078402         2.980444
 H        -1.300936        -0.802273         2.487497
 H        -2.671171        -0.545669         1.194350
