19
Iteration:  3384charge 0 multiplicity 1
 O         0.227903         0.116288         0.121106
 C        -0.778979         0.659300         1.028306
 C        -1.725503         1.729849         0.269643
 C        -2.683526         2.352651         1.267751
 O        -1.921652         3.212520         2.110954
 C        -1.521159         2.080762         2.898460
 C        -0.207148         1.296430         2.360985
 C        -2.641251         1.220831         2.369585
 C        -1.999684        -0.040648         1.838911
 H         0.842237        -0.480880         0.618077
 H        -1.139480         2.336783        -0.226039
 H        -2.162329         1.184081        -0.567594
 H        -3.640217         2.733391         0.904650
 H        -1.423607         2.204380         4.005693
 H         0.425362         2.185316         2.074706
 H         0.108685         0.627276         3.233628
 H        -3.497885         1.016988         3.047041
 H        -1.623097        -0.617720         2.717853
 H        -2.527808        -0.749696         1.187332
