19
Iteration:  3885
 O         0.079817        -0.027283         0.265242
 C        -0.778254         0.760366         1.017015
 C        -1.681434         1.808927         0.203117
 C        -2.683334         2.282908         1.279018
 O        -1.868422         3.160071         2.185908
 C        -1.492969         2.080657         2.965672
 C        -0.229131         1.469446         2.319004
 C        -2.593105         1.146514         2.377462
 C        -1.974412        -0.081731         1.686510
 H         0.930204         0.479885         0.303361
 H        -1.262045         2.637592        -0.271594
 H        -2.241743         1.240667        -0.604083
 H        -3.600023         2.625026         0.854827
 H        -1.478563         2.238255         4.065117
 H         0.603930         2.204214         2.154392
 H         0.018545         0.625745         2.889039
 H        -3.469714         0.880697         2.945033
 H        -1.447087        -0.795977         2.431147
 H        -2.670835        -0.585522         0.964957
