19
Iteration:  4085charge 0 multiplicity 1
 O         0.104604        -0.135269         0.352695
 C        -0.875097         0.746793         1.019832
 C        -1.604672         1.816693         0.253949
 C        -2.619575         2.308791         1.312663
 O        -1.934011         3.182385         2.280740
 C        -1.472080         2.024552         2.965331
 C        -0.259202         1.548893         2.235051
 C        -2.601776         1.144398         2.279544
 C        -2.004740        -0.062050         1.609815
 H         0.755356         0.423204        -0.096000
 H        -0.896569         2.669496        -0.080390
 H        -2.113647         1.470436        -0.651770
 H        -3.575570         2.828621         1.233480
 H        -1.173044         2.178106         4.087407
 H         0.316051         2.391153         2.005510
 H         0.406981         0.860130         2.692863
 H        -3.550019         0.922604         2.889492
 H        -1.558676        -1.039314         2.086916
 H        -2.526847        -0.520645         0.716162
