19
Iteration:  1616
 O         0.217161        -0.008089         0.408188
 C        -0.783707         0.673888         1.143812
 C        -1.597314         1.710635         0.311469
 C        -2.681608         2.250411         1.241932
 O        -1.985715         3.201265         2.145710
 C        -1.475060         2.087209         2.870050
 C        -0.210425         1.567262         2.168950
 C        -2.649644         1.157010         2.363711
 C        -2.015721        -0.081633         1.708463
 H         0.224287         0.271850        -0.514062
 H        -1.008679         2.496462        -0.083896
 H        -1.973209         1.147168        -0.560805
 H        -3.717249         2.563175         0.962287
 H        -1.244682         2.337792         3.902239
 H         0.330098         2.387250         1.729328
 H         0.369396         0.984056         3.010239
 H        -3.589945         0.942865         2.911942
 H        -1.840426        -0.941639         2.320071
 H        -2.713498        -0.377924         0.893517
