19
Iteration:  4717
 O         0.213680        -0.033680         0.222410
 C        -0.804612         0.730902         1.017387
 C        -1.705138         1.775471         0.230004
 C        -2.638526         2.291773         1.419453
 O        -1.936512         3.189921         2.132772
 C        -1.487643         2.004514         2.959029
 C        -0.219498         1.489663         2.291978
 C        -2.663729         1.167966         2.412104
 C        -2.003477        -0.040233         1.628086
 H         1.103630         0.008726         0.591917
 H        -1.288838         2.751670        -0.241492
 H        -2.296971         1.333419        -0.587769
 H        -3.562895         2.718231         1.088000
 H        -1.391477         2.315386         4.019156
 H         0.574754         2.229565         1.897714
 H         0.157113         0.759910         3.118929
 H        -3.594750         0.986117         2.886956
 H        -1.613514        -0.831652         2.274129
 H        -2.676180        -0.532651         0.894324
