19
Iteration:  2824
 O         0.152851        -0.081963         0.174551
 C        -0.774796         0.692628         1.058186
 C        -1.593946         1.717538         0.161833
 C        -2.590551         2.299372         1.267708
 O        -2.009739         3.246895         2.263670
 C        -1.504565         2.066153         2.915127
 C        -0.232220         1.512567         2.221338
 C        -2.647335         1.181250         2.459779
 C        -2.016180        -0.046853         1.768399
 H         1.024507        -0.087683         0.582985
 H        -1.007117         2.565720        -0.183796
 H        -2.062793         1.178141        -0.674876
 H        -3.552637         2.688300         0.939499
 H        -1.338437         2.190932         4.037051
 H         0.296533         2.494686         1.947855
 H         0.259379         0.809759         2.994065
 H        -3.687804         1.069390         2.839877
 H        -1.662157        -0.843959         2.427860
 H        -2.673320        -0.495487         0.972426
