19
Iteration:   985
 O         0.094198        -0.121188         0.431427
 C        -0.820014         0.804100         0.986588
 C        -1.560270         1.909381         0.135922
 C        -2.663972         2.265446         1.276939
 O        -2.027697         3.193907         2.179897
 C        -1.529115         2.069387         2.884961
 C        -0.267423         1.449973         2.214151
 C        -2.582013         1.069626         2.385657
 C        -1.887564        -0.035953         1.713382
 H         1.016249         0.208218         0.403148
 H        -0.976781         2.842309         0.060895
 H        -2.093656         1.417200        -0.751634
 H        -3.648834         2.575903         0.892839
 H        -1.422966         2.437193         3.933276
 H         0.601479         2.074011         2.075982
 H         0.097991         0.711169         2.913320
 H        -3.458239         0.904914         3.077919
 H        -1.546306        -0.717079         2.509676
 H        -2.343268        -0.722799         1.055664
