19
Iteration:  4920charge 0 multiplicity 1
 O         0.138652        -0.036878         0.289194
 C        -0.811448         0.705860         1.027818
 C        -1.593042         1.851839         0.220953
 C        -2.597496         2.262022         1.297440
 O        -2.087051         3.184261         2.261454
 C        -1.469408         2.134494         2.941996
 C        -0.120067         1.402032         2.235354
 C        -2.590633         1.150442         2.336703
 C        -1.974645        -0.053504         1.717542
 H        -0.071914        -0.053651        -0.653839
 H        -1.073474         2.702789        -0.269422
 H        -2.228962         1.339830        -0.485385
 H        -3.586963         2.572362         0.839496
 H        -1.341791         2.193451         4.029360
 H         0.549668         2.201510         2.054772
 H         0.174073         0.785298         3.085270
 H        -3.473565         1.146203         3.005916
 H        -1.772328        -0.857866         2.397746
 H        -2.543240        -0.545389         0.982940
