19
Iteration:  4526charge 0 multiplicity 1
 O         0.154781         0.016892         0.311376
 C        -0.840002         0.730984         1.041056
 C        -1.649238         1.819832         0.248564
 C        -2.673295         2.249955         1.377607
 O        -1.973012         3.164011         2.198847
 C        -1.410264         2.084962         2.937758
 C        -0.173710         1.531164         2.240057
 C        -2.588922         1.101878         2.323209
 C        -2.014872        -0.052540         1.604541
 H         0.178812        -0.905327         0.641027
 H        -1.095139         2.672360        -0.032434
 H        -2.192337         1.464569        -0.666492
 H        -3.657559         2.611115         0.930686
 H        -1.500475         2.096172         3.986598
 H         0.357975         2.228794         1.690755
 H         0.351623         0.909895         3.074050
 H        -3.407631         1.056167         3.104666
 H        -1.600988        -0.842712         2.162961
 H        -2.562463        -0.494073         0.796470
