19
Iteration:  2607charge 0 multiplicity 1
 O         0.244880         0.040433         0.189966
 C        -0.782513         0.750713         1.081306
 C        -1.621881         1.737078         0.280171
 C        -2.676532         2.318752         1.246498
 O        -1.871008         3.156916         2.132388
 C        -1.540804         2.051167         2.969562
 C        -0.261097         1.397694         2.359511
 C        -2.696841         1.191423         2.398407
 C        -1.983716         0.057894         1.709811
 H        -0.054329        -0.874415         0.084447
 H        -1.112854         2.412755        -0.400789
 H        -2.201937         1.030257        -0.446583
 H        -3.625741         2.667505         0.761319
 H        -1.388827         2.459188         4.019024
 H         0.556630         2.176575         2.107901
 H         0.115515         0.748229         3.150111
 H        -3.660166         0.746218         2.946127
 H        -1.656522        -0.826811         2.270634
 H        -2.610188        -0.462196         0.931381
