19
Iteration:   408charge 0 multiplicity 1
 O         0.161915         0.063726         0.343259
 C        -0.808134         0.775707         1.043924
 C        -1.567284         1.799938         0.275660
 C        -2.596586         2.342436         1.194321
 O        -1.839500         3.147397         2.169456
 C        -1.579381         1.979016         2.946931
 C        -0.235529         1.402445         2.447806
 C        -2.737570         1.148617         2.293559
 C        -2.038538        -0.119424         1.593846
 H         0.470441         0.816106        -0.172485
 H        -0.981422         2.618908        -0.065786
 H        -2.015418         1.303221        -0.614287
 H        -3.398926         2.855872         0.641868
 H        -1.670772         2.222172         4.022878
 H         0.679109         2.001652         2.388662
 H         0.123739         0.624147         3.169474
 H        -3.621503         0.980152         2.853285
 H        -1.776052        -0.877123         2.332985
 H        -2.635113        -0.589376         0.815024
