19
Iteration:  1422
 O         0.196833        -0.102242         0.430958
 C        -0.828016         0.723852         1.018708
 C        -1.592197         1.777271         0.207531
 C        -2.617687         2.324586         1.184568
 O        -2.031416         3.214514         2.242756
 C        -1.510447         2.049226         2.931183
 C        -0.224024         1.495602         2.303833
 C        -2.679088         1.191766         2.279755
 C        -1.918850        -0.065980         1.703629
 H         0.291528         0.230534        -0.468213
 H        -1.070443         2.619660        -0.232648
 H        -2.038479         1.235693        -0.769267
 H        -3.513931         2.694098         0.825268
 H        -1.441076         2.079658         3.995118
 H         0.434326         2.299895         1.985422
 H         0.314267         0.851214         3.002992
 H        -3.679292         1.132325         2.779810
 H        -1.521886        -0.682397         2.504357
 H        -2.405224        -0.932840         1.181257
