19
Iteration:  3111charge 0 multiplicity 1
 O         0.185339         0.092608         0.187150
 C        -0.831273         0.745679         1.003776
 C        -1.761755         1.663581         0.167170
 C        -2.643977         2.281522         1.280339
 O        -1.878131         3.179401         2.100416
 C        -1.433009         2.088262         2.995540
 C        -0.251545         1.504806         2.323459
 C        -2.660440         1.177434         2.419452
 C        -1.962978        -0.097698         1.765511
 H         0.615132        -0.606736         0.742905
 H        -1.178109         2.430895        -0.211042
 H        -2.200938         0.929351        -0.597089
 H        -3.577599         2.672115         1.024544
 H        -1.462139         2.380123         4.055932
 H         0.612459         2.242446         2.227741
 H         0.182510         0.777816         3.052197
 H        -3.550916         1.087538         3.111615
 H        -1.479945        -0.782014         2.477431
 H        -2.760039        -0.557531         1.164222
