19
Iteration:  1221charge 0 multiplicity 1
 O         0.213124         0.018621         0.394554
 C        -0.818943         0.795998         1.033450
 C        -1.668591         1.724488         0.136708
 C        -2.567234         2.224243         1.211569
 O        -1.860513         3.190228         2.174247
 C        -1.590317         2.051066         2.984613
 C        -0.298681         1.506207         2.302457
 C        -2.700057         1.160169         2.330526
 C        -1.926363        -0.069801         1.769648
 H         0.106215         0.107625        -0.559278
 H        -1.103652         2.562920        -0.301638
 H        -2.231117         0.941291        -0.445287
 H        -3.527858         2.688916         0.906401
 H        -1.699412         2.239616         4.067262
 H         0.548157         2.173548         2.175651
 H         0.079828         0.630056         2.769050
 H        -3.649734         1.181169         2.741420
 H        -1.408339        -0.674019         2.504791
 H        -2.333958        -0.617578         0.945621
