19
Iteration:  1296
 O         0.203824        -0.064291         0.397628
 C        -0.787168         0.742133         1.061196
 C        -1.575222         1.822564         0.197027
 C        -2.632538         2.275222         1.228130
 O        -2.012974         3.235085         2.193287
 C        -1.590812         2.046112         2.923301
 C        -0.229860         1.493874         2.290479
 C        -2.630420         1.175926         2.278125
 C        -1.929800        -0.119133         1.745289
 H        -0.068824        -0.229341        -0.538914
 H        -0.914667         2.739199        -0.056862
 H        -2.097295         1.255207        -0.675633
 H        -3.617606         2.741259         0.824039
 H        -1.407570         2.297700         4.028463
 H         0.604461         2.198469         2.155914
 H         0.174426         0.769352         2.958988
 H        -3.563881         1.141341         2.759422
 H        -1.512234        -0.870390         2.477316
 H        -2.565063        -0.733391         1.061528
