19
Iteration:  2677charge 0 multiplicity 1
 O         0.194860        -0.117169         0.334751
 C        -0.780116         0.664094         1.092864
 C        -1.601841         1.860644         0.239997
 C        -2.684613         2.292878         1.235691
 O        -2.063440         3.243498         2.266882
 C        -1.437322         2.109418         2.937895
 C        -0.148801         1.516549         2.284944
 C        -2.618217         1.139257         2.301737
 C        -1.976865        -0.065325         1.645018
 H        -0.308753        -0.718832        -0.240430
 H        -0.927778         2.637995        -0.230199
 H        -2.152184         1.383700        -0.571009
 H        -3.597742         2.942011         0.904770
 H        -1.349418         2.304866         3.994727
 H         0.460933         2.235930         1.789632
 H         0.372299         0.768916         2.880690
 H        -3.490704         0.925384         2.868949
 H        -1.912428        -0.915007         2.358997
 H        -2.644942        -0.512772         0.894007
