19
Iteration:  4177
 O         0.204197         0.033081         0.357045
 C        -0.875860         0.794170         1.038337
 C        -1.729523         1.769905         0.183061
 C        -2.630484         2.316560         1.305852
 O        -1.864287         3.216816         2.255738
 C        -1.394639         1.973452         2.891889
 C        -0.219583         1.392301         2.281462
 C        -2.685660         1.098724         2.312768
 C        -2.047741        -0.062541         1.669802
 H         0.676360         0.802862        -0.039700
 H        -1.183113         2.518992        -0.372792
 H        -2.250962         1.105223        -0.524872
 H        -3.532530         2.877321         0.862040
 H        -1.372569         2.194113         3.930383
 H         0.530829         2.263332         2.206680
 H         0.347605         0.559034         2.812574
 H        -3.526557         1.008171         2.986476
 H        -1.864171        -0.856863         2.372552
 H        -2.684630        -0.581836         0.894882
