19
Iteration:  4946charge 0 multiplicity 1
 O         0.212001         0.031097         0.352421
 C        -0.923492         0.792058         1.052582
 C        -1.756580         1.730543         0.188640
 C        -2.610314         2.301161         1.305933
 O        -1.807649         3.155042         2.166537
 C        -1.499399         2.004059         2.994277
 C        -0.218426         1.474264         2.263518
 C        -2.645245         1.139481         2.375065
 C        -1.972870        -0.024204         1.655832
 H         0.063237         0.145411        -0.594561
 H        -1.102867         2.572124        -0.196372
 H        -2.274254         1.179898        -0.621630
 H        -3.607800         2.617511         0.833283
 H        -1.528061         1.984986         4.081181
 H         0.207238         2.480102         2.169268
 H         0.293937         0.776492         2.877342
 H        -3.405655         1.045629         3.110358
 H        -1.562398        -0.839559         2.316727
 H        -2.455579        -0.666365         0.822646
