19
Iteration:  1768charge 0 multiplicity 1
 O         0.102802         0.045375         0.363581
 C        -0.807718         0.662551         1.109513
 C        -1.510538         1.755399         0.246133
 C        -2.544436         2.227256         1.189361
 O        -2.120306         3.185074         2.161243
 C        -1.503084         2.123491         2.918893
 C        -0.223063         1.566524         2.115920
 C        -2.572315         1.122633         2.419994
 C        -1.950093        -0.094357         1.815265
 H        -0.299087        -0.671483        -0.153216
 H        -0.812803         2.583355        -0.006315
 H        -2.116897         1.393064        -0.686903
 H        -3.477654         2.635273         0.709967
 H        -1.399498         2.371935         3.972622
 H         0.377226         2.270934         1.648984
 H         0.460868         1.060457         2.782320
 H        -3.502243         1.086712         2.907929
 H        -1.507631        -0.748648         2.578235
 H        -2.535957        -0.746865         1.199012
