19
Iteration:  1773charge 0 multiplicity 1
 O         0.145846         0.013989         0.391650
 C        -0.826482         0.677064         1.062735
 C        -1.518664         1.745538         0.245980
 C        -2.612657         2.253555         1.174677
 O        -2.140120         3.213547         2.177740
 C        -1.461237         2.111390         2.892155
 C        -0.194720         1.584479         2.111275
 C        -2.586329         1.131974         2.416932
 C        -1.948405        -0.140524         1.855822
 H        -0.367353        -0.570202        -0.198864
 H        -0.829498         2.543217        -0.014413
 H        -2.031662         1.568941        -0.681720
 H        -3.521883         2.636007         0.760864
 H        -1.223177         2.233005         3.972018
 H         0.588458         2.329102         1.668636
 H         0.395419         0.977152         2.891272
 H        -3.643953         1.033400         2.841686
 H        -1.499565        -0.828905         2.594264
 H        -2.605339        -0.640467         1.072855
