19
Iteration:  3471charge 0 multiplicity 1
 O         0.040483        -0.017232         0.231780
 C        -0.847248         0.699984         1.034283
 C        -1.573538         1.762163         0.169712
 C        -2.585764         2.339886         1.179843
 O        -2.081955         3.212570         2.253688
 C        -1.473187         2.036132         3.005283
 C        -0.220450         1.490927         2.215618
 C        -2.532864         1.137799         2.361773
 C        -1.918443        -0.049571         1.782045
 H         0.655239        -0.395834         0.923045
 H        -0.879074         2.359529        -0.251070
 H        -2.165422         1.288705        -0.679472
 H        -3.489622         2.835040         0.914138
 H        -1.280436         2.227824         4.115915
 H         0.629608         2.172474         2.059163
 H         0.226584         0.865464         2.949264
 H        -3.492527         1.136781         2.876125
 H        -1.632421        -0.835467         2.437763
 H        -2.525533        -0.503791         1.025142
