19
Iteration:  4532charge 0 multiplicity 1
 O         0.156984         0.020762         0.276735
 C        -0.747794         0.722153         1.064013
 C        -1.725097         1.837491         0.255193
 C        -2.692042         2.278485         1.367777
 O        -1.932273         3.176229         2.162503
 C        -1.437886         2.038882         2.931928
 C        -0.250796         1.513862         2.238265
 C        -2.602079         1.107577         2.361004
 C        -1.991577        -0.040207         1.609951
 H         0.296952        -0.866007         0.624288
 H        -0.956575         2.663875         0.006706
 H        -2.081817         1.351725        -0.644347
 H        -3.588834         2.622432         0.924654
 H        -1.425920         2.219356         4.092154
 H         0.611247         2.289142         1.900967
 H         0.210935         0.951091         2.997080
 H        -3.345078         0.811807         3.066543
 H        -1.681175        -0.908995         2.340604
 H        -2.694059        -0.497578         0.846990
