19
Iteration:  1436charge 0 multiplicity 1
 O         0.233689        -0.013302         0.409311
 C        -0.793437         0.707859         1.088961
 C        -1.616154         1.774375         0.210681
 C        -2.672790         2.287670         1.228126
 O        -2.024951         3.256434         2.180615
 C        -1.501365         2.083753         2.920247
 C        -0.263696         1.340355         2.251664
 C        -2.677382         1.178982         2.284257
 C        -1.948994        -0.086866         1.742255
 H         0.731399         0.440466        -0.316985
 H        -0.914489         2.592989        -0.206813
 H        -2.232223         1.264243        -0.545745
 H        -3.552843         2.754317         0.700197
 H        -1.404516         2.544027         3.914793
 H         0.682437         2.048883         2.112850
 H         0.216492         0.461615         2.854867
 H        -3.522138         1.092671         2.911826
 H        -1.555942        -0.719597         2.562049
 H        -2.532626        -0.524246         0.991379
