19
Iteration:   264
 O         0.184713         0.101380         0.335420
 C        -0.832839         0.754078         1.046057
 C        -1.602667         1.793334         0.239757
 C        -2.595481         2.271722         1.271758
 O        -1.856974         3.188348         2.156064
 C        -1.522596         2.010480         2.986524
 C        -0.260974         1.439116         2.389926
 C        -2.699349         1.103732         2.316061
 C        -2.037588        -0.056712         1.513299
 H         0.352846        -0.679805         0.930280
 H        -1.045799         2.672526        -0.004785
 H        -2.055987         1.242157        -0.703495
 H        -3.485054         2.756815         0.855487
 H        -1.555941         2.326986         4.063325
 H         0.517621         2.206369         2.114734
 H         0.288138         0.623067         3.025420
 H        -3.648086         0.968925         2.963400
 H        -1.806065        -0.893406         2.208378
 H        -2.609490        -0.360876         0.645129
