19
Iteration:   572charge 0 multiplicity 1
 O         0.131512         0.042858         0.248090
 C        -0.785448         0.754598         1.146338
 C        -1.604450         1.771068         0.237315
 C        -2.486359         2.408856         1.217739
 O        -1.926320         3.154922         2.262580
 C        -1.531876         1.907120         2.959631
 C        -0.284353         1.474069         2.390228
 C        -2.712509         1.152422         2.256502
 C        -1.996400        -0.051286         1.562590
 H         0.839481        -0.395093         0.792929
 H        -1.074969         2.236657        -0.527897
 H        -2.244346         1.166784        -0.404139
 H        -3.395077         2.727871         0.597085
 H        -1.522860         2.258134         4.009781
 H         0.310516         2.384178         2.198804
 H         0.195555         0.778482         3.127354
 H        -3.679015         1.140749         2.693759
 H        -1.824835        -0.672113         2.538188
 H        -2.495616        -0.508073         0.684513
