19
Iteration:    78
 O         0.168086        -0.184596         0.394876
 C        -0.784778         0.730144         1.008999
 C        -1.383436         1.920666         0.282292
 C        -2.593280         2.349265         1.231068
 O        -2.071082         3.184911         2.340352
 C        -1.554732         1.962073         2.911809
 C        -0.289618         1.471232         2.286237
 C        -2.653862         1.191885         2.272874
 C        -2.083076        -0.036937         1.527928
 H         0.849450         0.446680         0.020418
 H        -0.635715         2.657456         0.156235
 H        -1.793505         1.590775        -0.706288
 H        -3.412692         2.828985         0.720015
 H        -1.568250         1.920219         4.002437
 H         0.536824         2.132877         2.144734
 H         0.125618         0.741123         2.949041
 H        -3.507863         1.054082         2.932715
 H        -1.830926        -0.820624         2.231744
 H        -2.635237        -0.342956         0.663558
