19
Iteration:  2943
 O         0.200199        -0.168122         0.304830
 C        -0.781550         0.756435         0.964638
 C        -1.662344         1.900161         0.141074
 C        -2.676936         2.294584         1.260122
 O        -1.994523         3.258437         2.269699
 C        -1.536316         2.074434         2.958777
 C        -0.276811         1.522332         2.197381
 C        -2.576390         1.129995         2.387470
 C        -1.886123        -0.101632         1.750689
 H        -0.190418        -1.066022         0.479695
 H        -1.119858         2.858365        -0.093708
 H        -2.102342         1.390051        -0.761908
 H        -3.706628         2.736803         0.900299
 H        -1.244467         2.339631         4.041544
 H         0.445173         2.324066         1.937453
 H         0.101730         0.772600         2.886638
 H        -3.409768         0.955964         3.098055
 H        -1.340803        -0.657945         2.555694
 H        -2.390161        -0.730262         0.966021
