19
Iteration:  4067
 O         0.114206        -0.033482         0.339051
 C        -0.828226         0.749791         1.003269
 C        -1.710684         1.851254         0.183229
 C        -2.612361         2.315706         1.346990
 O        -1.884411         3.232027         2.206399
 C        -1.508303         2.000436         2.971244
 C        -0.216887         1.406146         2.274802
 C        -2.628242         1.098831         2.385561
 C        -1.974271        -0.078072         1.586239
 H         0.990662         0.362582         0.324909
 H        -1.199900         2.712230        -0.304562
 H        -2.202290         1.238061        -0.574252
 H        -3.480008         2.841948         0.819133
 H        -1.509935         2.147333         4.029454
 H         0.593938         2.158831         1.951138
 H         0.309378         0.640637         2.992604
 H        -3.517015         0.997865         2.973253
 H        -1.599607        -0.769780         2.294744
 H        -2.742475        -0.357280         0.878384
