19
Iteration:  2350
 O         0.163790         0.190913         0.345737
 C        -0.879986         0.689317         1.114456
 C        -1.681090         1.687697         0.126633
 C        -2.678658         2.215788         1.170138
 O        -1.912973         3.201382         2.118980
 C        -1.363734         2.118916         2.948601
 C        -0.176715         1.572976         2.279796
 C        -2.595907         1.117505         2.389806
 C        -2.056071        -0.172299         1.818781
 H         0.122760        -0.767975         0.277779
 H        -1.097750         2.468948        -0.396221
 H        -2.234654         1.054723        -0.668799
 H        -3.639724         2.610108         0.801402
 H        -1.334569         2.356262         4.035256
 H         0.272566         2.328508         1.796941
 H         0.443207         0.880213         2.801232
 H        -3.476824         1.023114         3.078398
 H        -1.552775        -0.889514         2.529616
 H        -2.750991        -0.806739         1.256317
