19
Iteration:  2910
 O         0.066621        -0.011614         0.286931
 C        -0.792285         0.717360         1.149346
 C        -1.539794         1.692698         0.267637
 C        -2.665410         2.254646         1.220846
 O        -2.022421         3.227302         2.325948
 C        -1.448675         2.081960         2.914969
 C        -0.188062         1.592208         2.135853
 C        -2.594971         1.166654         2.329744
 C        -1.942282        -0.078063         1.669704
 H        -0.275859        -0.916559         0.388877
 H        -1.033413         2.616806        -0.158234
 H        -1.928223         1.187562        -0.641641
 H        -3.624442         2.728681         0.692077
 H        -1.401462         2.207419         4.068276
 H         0.342837         2.473173         1.709210
 H         0.440723         1.033272         2.851409
 H        -3.458549         0.988477         3.004753
 H        -1.773146        -0.949646         2.357856
 H        -2.363849        -0.662351         0.795406
