19
Iteration:  2239charge 0 multiplicity 1
 O         0.190054         0.111516         0.364040
 C        -0.799702         0.777140         1.039049
 C        -1.739761         1.586278         0.122552
 C        -2.680347         2.253160         1.243691
 O        -2.015928         3.240816         2.129652
 C        -1.418468         2.142840         2.887839
 C        -0.258852         1.470651         2.188735
 C        -2.573857         1.170914         2.505792
 C        -1.872821        -0.093298         1.801339
 H         0.128407        -0.876426         0.373098
 H        -1.248113         2.368064        -0.423025
 H        -2.324489         0.796411        -0.582410
 H        -3.763542         2.603335         1.042990
 H        -1.174654         2.490825         3.862641
 H         0.419472         2.167120         1.902978
 H         0.252809         0.764233         2.861743
 H        -3.550794         1.083949         3.184149
 H        -1.216637        -0.790951         2.384858
 H        -2.606701        -0.641431         1.150576
