19
Iteration:   636charge 0 multiplicity 1
 O         0.168249        -0.038127         0.347477
 C        -0.770938         0.737122         1.077660
 C        -1.471744         1.847350         0.247948
 C        -2.631626         2.309138         1.243443
 O        -2.086082         3.261510         2.205672
 C        -1.521009         2.026499         2.961074
 C        -0.155874         1.405130         2.349473
 C        -2.666481         1.141235         2.262043
 C        -2.032916        -0.068948         1.621412
 H        -0.344633        -0.423485        -0.372880
 H        -0.653329         2.538090         0.239871
 H        -1.922476         1.590913        -0.760784
 H        -3.593413         2.701618         0.837998
 H        -1.327629         2.105419         4.056983
 H         0.619830         2.130969         2.062673
 H         0.152305         0.684953         3.048521
 H        -3.519778         0.901649         2.855802
 H        -1.626055        -0.773761         2.387466
 H        -2.520204        -0.514954         0.767316
