19
Iteration:  4490
 O         0.151884        -0.081760         0.179517
 C        -0.846085         0.698436         0.972215
 C        -1.543281         1.784879         0.203552
 C        -2.610682         2.300501         1.316995
 O        -2.061864         3.190678         2.335460
 C        -1.531722         2.037459         2.910932
 C        -0.248819         1.570178         2.271032
 C        -2.620301         1.190295         2.335277
 C        -1.871066        -0.045277         1.710096
 H         0.021561        -0.997957         0.477410
 H        -0.955393         2.678907        -0.171514
 H        -2.193000         1.368170        -0.542820
 H        -3.507426         2.789020         1.041077
 H        -1.496442         2.122350         4.071074
 H         0.515057         2.365352         1.903891
 H         0.434460         1.002948         2.885699
 H        -3.501569         1.071153         2.948131
 H        -1.444064        -0.637784         2.574477
 H        -2.478597        -0.659489         1.053259
