19
Iteration:   113charge 0 multiplicity 1
 O         0.070729        -0.049034         0.220510
 C        -0.791398         0.793442         1.101922
 C        -1.487485         1.908681         0.182564
 C        -2.556604         2.369103         1.184231
 O        -1.937844         3.120255         2.255249
 C        -1.609150         1.940836         2.990233
 C        -0.195452         1.505771         2.490796
 C        -2.682387         1.174302         2.183086
 C        -1.988050        -0.084914         1.612441
 H         0.575565        -0.553673         0.939399
 H        -0.894042         2.683506        -0.151899
 H        -1.966630         1.486082        -0.745807
 H        -3.449094         2.936521         0.825210
 H        -1.762844         1.859740         4.099656
 H         0.508613         2.353082         2.424000
 H         0.050803         0.638186         3.148998
 H        -3.664160         1.037502         2.742706
 H        -1.716475        -0.860890         2.373157
 H        -2.507955        -0.722062         0.907835
