19
Iteration:  1907charge 0 multiplicity 1
 O         0.172204        -0.095203         0.385598
 C        -0.809488         0.756472         1.050329
 C        -1.657456         1.739951         0.221973
 C        -2.737655         2.194610         1.250516
 O        -1.963735         3.206403         2.126184
 C        -1.438890         2.067792         2.872927
 C        -0.181954         1.723352         2.233346
 C        -2.650160         1.075802         2.378738
 C        -1.935128        -0.002847         1.782429
 H        -0.128413        -1.013704         0.310903
 H        -1.079891         2.673396        -0.148800
 H        -2.094267         1.143045        -0.524945
 H        -3.755338         2.562801         0.970099
 H        -1.317147         2.194486         3.971040
 H         0.201436         2.678212         1.674687
 H         0.668104         1.167822         2.815658
 H        -3.470293         0.912175         3.000630
 H        -1.357215        -0.834476         2.305782
 H        -2.498904        -0.639674         1.080363
