19
Iteration:   230
 O         0.115062        -0.106318         0.231791
 C        -0.809165         0.713099         1.029865
 C        -1.438801         1.879970         0.281112
 C        -2.530575         2.338458         1.252189
 O        -2.145415         3.188608         2.302158
 C        -1.536220         2.048256         2.915420
 C        -0.190118         1.410040         2.319824
 C        -2.713297         1.175587         2.271009
 C        -1.994126        -0.057223         1.639674
 H         0.988202        -0.041355         0.707913
 H        -0.779801         2.715525         0.026534
 H        -1.932792         1.591242        -0.735527
 H        -3.237563         2.918277         0.690873
 H        -1.383964         2.437730         3.937909
 H         0.577770         2.210286         2.101628
 H         0.237514         0.496793         2.857421
 H        -3.699913         0.983819         2.805266
 H        -1.654111        -0.585640         2.548337
 H        -2.520866        -0.864277         1.130347
