19
Iteration:  3430charge 0 multiplicity 1
 O         0.083943        -0.073668         0.287927
 C        -0.781463         0.757424         1.077585
 C        -1.622537         1.809876         0.210406
 C        -2.668600         2.280984         1.299451
 O        -1.955501         3.141819         2.180650
 C        -1.450099         2.034420         2.931344
 C        -0.175774         1.588796         2.227499
 C        -2.657736         1.171058         2.368279
 C        -1.979666        -0.038346         1.718570
 H         0.533741        -0.797139         0.725909
 H        -1.051655         2.678609        -0.088483
 H        -1.971380         1.416404        -0.729564
 H        -3.542739         2.603407         0.784120
 H        -1.469472         2.175105         4.009536
 H         0.376454         2.507404         1.874671
 H         0.528020         0.880920         2.821730
 H        -3.481408         0.833088         2.948152
 H        -1.702931        -0.954930         2.345577
 H        -2.672245        -0.400286         0.938649
