19
Iteration:  2016charge 0 multiplicity 1
 O         0.176312        -0.099433         0.301604
 C        -0.735257         0.690028         0.966595
 C        -1.686133         1.639323         0.188320
 C        -2.631116         2.273388         1.263413
 O        -2.163203         3.289948         2.243482
 C        -1.481019         2.168419         2.879217
 C        -0.187919         1.534154         2.133840
 C        -2.602791         1.172081         2.400577
 C        -1.931831        -0.070450         1.857265
 H         1.042396         0.001990         0.753897
 H        -1.288387         2.513569        -0.561580
 H        -2.365461         1.085389        -0.488729
 H        -3.595575         2.586661         0.842789
 H        -0.999160         2.391827         3.863815
 H         0.495069         2.469407         1.866414
 H         0.467573         0.800031         2.807654
 H        -3.430962         1.018046         3.027345
 H        -1.426325        -0.640346         2.669251
 H        -2.473071        -0.875636         1.349801
