19
Iteration:  4904charge 0 multiplicity 1
 O         0.150648        -0.101197         0.238891
 C        -0.795506         0.689617         1.049725
 C        -1.531308         1.813877         0.337856
 C        -2.717626         2.326219         1.295080
 O        -2.126638         3.333570         2.243247
 C        -1.437687         2.010343         2.897022
 C        -0.213338         1.488152         2.265586
 C        -2.573923         1.134409         2.344985
 C        -1.913875        -0.116999         1.687350
 H        -0.351982        -0.259316        -0.591084
 H        -0.817873         2.645558         0.267143
 H        -1.833509         1.653463        -0.746224
 H        -3.622811         2.759676         0.921860
 H        -1.298579         2.282354         3.955509
 H         0.605147         2.141818         1.803325
 H         0.259312         0.649874         2.836302
 H        -3.452471         1.026725         2.984219
 H        -1.414881        -0.801483         2.433587
 H        -2.686819        -0.681436         1.020500
