19
Iteration:   372
 O         0.156293        -0.109790         0.334147
 C        -0.839311         0.681007         0.964274
 C        -1.531831         1.848906         0.192018
 C        -2.537314         2.369546         1.215142
 O        -2.001615         3.202175         2.351146
 C        -1.581757         1.980465         2.959649
 C        -0.233965         1.557098         2.369125
 C        -2.687231         1.137332         2.237651
 C        -1.973583        -0.089905         1.615794
 H         1.090676         0.113473         0.402172
 H        -0.977572         2.691974        -0.092307
 H        -2.062276         1.532634        -0.664817
 H        -3.319062         2.970291         0.749554
 H        -1.639403         1.964987         4.066706
 H         0.398053         2.367869         1.984168
 H         0.175585         0.666930         2.816430
 H        -3.647366         1.142639         2.881807
 H        -1.637458        -0.813383         2.412346
 H        -2.665974        -0.652391         0.964579
