19
Iteration:    45charge 0 multiplicity 1
 O         0.238740         0.119347         0.372786
 C        -0.817232         0.727355         1.125275
 C        -1.485304         1.787682         0.291465
 C        -2.565715         2.348269         1.229097
 O        -1.828668         3.176930         2.227604
 C        -1.599253         1.950005         2.975782
 C        -0.337536         1.359901         2.404391
 C        -2.727941         1.152375         2.242183
 C        -2.068252        -0.025523         1.488985
 H        -0.116575        -0.255651        -0.438554
 H        -0.870369         2.492065        -0.198320
 H        -2.019360         1.208144        -0.500619
 H        -3.371309         2.847441         0.720255
 H        -1.673289         2.075272         4.052029
 H         0.354080         2.158413         2.192479
 H         0.070495         0.610779         3.050365
 H        -3.626841         1.098231         2.818047
 H        -1.911788        -0.890716         2.123182
 H        -2.597077        -0.398274         0.624218
