19
Iteration:  1105charge 0 multiplicity 1
 O         0.239183         0.037235         0.372960
 C        -0.792330         0.696127         1.086819
 C        -1.579094         1.737080         0.176047
 C        -2.530821         2.222580         1.203134
 O        -2.019505         3.253807         2.227007
 C        -1.511851         2.061111         2.950666
 C        -0.241848         1.537719         2.239895
 C        -2.642235         1.139872         2.353580
 C        -2.079024        -0.125207         1.719252
 H         0.036111        -0.502350        -0.401839
 H        -1.020661         2.625316        -0.047705
 H        -2.036727         1.197906        -0.664174
 H        -3.419018         2.645519         0.820649
 H        -1.250409         2.264052         4.006687
 H         0.324882         2.424955         2.006290
 H         0.283680         0.955945         2.992885
 H        -3.690789         1.136265         2.807414
 H        -1.870937        -0.963223         2.379642
 H        -2.765522        -0.388766         0.881033
