19
Iteration:  4781
 O         0.110410        -0.159401         0.199714
 C        -0.700572         0.695473         1.042630
 C        -1.636196         1.823844         0.235496
 C        -2.694189         2.312508         1.305334
 O        -1.993966         3.284133         2.229029
 C        -1.544357         2.067818         2.982494
 C        -0.152624         1.492295         2.355161
 C        -2.613951         1.101842         2.332797
 C        -1.918944        -0.015446         1.694312
 H        -0.090055         0.205024        -0.687230
 H        -0.915074         2.700192        -0.119763
 H        -1.866587         1.360339        -0.730862
 H        -3.690691         2.706181         0.959610
 H        -1.674840         1.942998         4.056648
 H         0.426016         2.350717         2.039212
 H         0.197181         0.921821         3.216550
 H        -3.500892         0.852365         2.884064
 H        -1.461223        -0.843959         2.264456
 H        -2.581219        -0.651273         1.008492
