19
Iteration:  1783charge 0 multiplicity 1
 O         0.244885        -0.105893         0.400622
 C        -0.836235         0.726045         1.041563
 C        -1.607573         1.786759         0.198658
 C        -2.728335         2.267097         1.264460
 O        -2.135402         3.267550         2.212151
 C        -1.416983         2.097654         2.826849
 C        -0.159418         1.572953         2.179580
 C        -2.620571         1.150013         2.331148
 C        -1.925520        -0.130798         1.848625
 H        -0.102699        -0.480426        -0.426756
 H        -0.885780         2.539224         0.026105
 H        -1.901699         1.331006        -0.790893
 H        -3.649270         2.525460         0.799060
 H        -1.245515         2.338645         3.882968
 H         0.564923         2.410715         1.863399
 H         0.290500         0.804671         2.902222
 H        -3.479679         1.120397         3.098545
 H        -1.586766        -0.889190         2.519010
 H        -2.648152        -0.639601         1.162829
