19
Iteration:  4181
 O         0.203505         0.012198         0.349541
 C        -0.860601         0.794330         1.018231
 C        -1.721377         1.768412         0.183944
 C        -2.633830         2.383276         1.323522
 O        -1.872086         3.225878         2.246624
 C        -1.407454         1.960931         2.910897
 C        -0.266771         1.379501         2.275970
 C        -2.655377         1.123281         2.319317
 C        -2.018483        -0.111041         1.670337
 H         0.685247         0.801332         0.062441
 H        -1.150840         2.488549        -0.387070
 H        -2.344446         1.126268        -0.518353
 H        -3.538178         2.794103         0.932546
 H        -1.436546         2.194095         3.982112
 H         0.508679         2.262280         2.046494
 H         0.372029         0.679394         2.886504
 H        -3.648098         0.944474         2.867886
 H        -1.679345        -0.916736         2.378540
 H        -2.726972        -0.487820         0.913950
