19
Iteration:  2589charge 0 multiplicity 1
 O         0.213870         0.099398         0.299201
 C        -0.848512         0.715036         0.992798
 C        -1.652881         1.795559         0.147437
 C        -2.618522         2.271417         1.274613
 O        -1.939337         3.248111         2.144775
 C        -1.477326         2.081162         2.972020
 C        -0.234759         1.374682         2.337316
 C        -2.641683         1.162408         2.346597
 C        -1.986407        -0.127754         1.769100
 H        -0.018548        -0.822976         0.165124
 H        -0.973564         2.612436        -0.033654
 H        -2.040612         1.436454        -0.796942
 H        -3.559945         2.645274         0.737990
 H        -1.411734         2.200636         4.012527
 H         0.544170         2.072400         2.186316
 H         0.025769         0.464298         2.889336
 H        -3.468172         1.290758         3.007682
 H        -1.691510        -0.743301         2.622643
 H        -2.698281        -0.695157         1.149376
