19
Iteration:   475charge 0 multiplicity 1
 O         0.076839        -0.195724         0.357831
 C        -0.755076         0.695483         1.053766
 C        -1.506939         1.952341         0.225025
 C        -2.544198         2.400260         1.152100
 O        -1.995335         3.207582         2.386833
 C        -1.672920         1.965619         2.979460
 C        -0.176365         1.500694         2.247422
 C        -2.746262         1.131025         2.176588
 C        -1.941099        -0.107042         1.697843
 H         0.854235         0.392527         0.146133
 H        -0.789622         2.692750        -0.121870
 H        -2.008696         1.664607        -0.721444
 H        -3.386757         3.092782         0.802714
 H        -1.579570         1.905291         4.074617
 H         0.232441         2.456736         1.885630
 H         0.546094         0.763977         2.803376
 H        -3.700058         0.955583         2.583060
 H        -1.392361        -0.636089         2.504504
 H        -2.401054        -0.667559         0.877042
