19
Iteration:   903
 O         0.238858        -0.015158         0.439521
 C        -0.877754         0.802861         1.021213
 C        -1.592434         1.872379         0.222253
 C        -2.678697         2.245993         1.215314
 O        -1.977347         3.186372         2.152278
 C        -1.483521         2.013649         2.886782
 C        -0.220759         1.458775         2.277107
 C        -2.620867         1.108338         2.407011
 C        -1.962882        -0.057046         1.655294
 H        -0.146067        -0.764983        -0.031195
 H        -1.151339         2.818400        -0.078771
 H        -1.982409         1.486189        -0.691564
 H        -3.637035         2.619358         0.844733
 H        -1.348870         2.400269         3.879424
 H         0.494425         2.251213         2.202195
 H        -0.011555         0.663743         2.962686
 H        -3.550653         1.037696         2.961032
 H        -1.373195        -0.619206         2.359778
 H        -2.655174        -0.688259         1.031521
