19
Iteration:  3372
 O         0.169996         0.113034         0.157399
 C        -0.850552         0.732163         1.099071
 C        -1.614596         1.721651         0.237595
 C        -2.667149         2.253362         1.255254
 O        -1.913322         3.257646         2.126530
 C        -1.440578         1.988637         2.940868
 C        -0.219140         1.395758         2.303542
 C        -2.700846         1.221029         2.355423
 C        -2.009907        -0.109287         1.803528
 H         0.829309        -0.293837         0.766309
 H        -1.141455         2.507468        -0.136583
 H        -2.230279         1.108807        -0.424914
 H        -3.573523         2.656275         0.742295
 H        -1.480004         2.320419         4.016726
 H         0.579190         2.155900         2.070579
 H         0.489345         0.656128         2.782547
 H        -3.674410         1.188844         2.949880
 H        -1.519501        -0.680158         2.593648
 H        -2.779060        -0.702270         1.268628
