19
Iteration:  1786charge 0 multiplicity 1
 O         0.259236        -0.132942         0.401985
 C        -0.810590         0.722574         1.047137
 C        -1.640904         1.792462         0.178452
 C        -2.741681         2.259911         1.294848
 O        -2.127839         3.271418         2.211097
 C        -1.425852         2.103393         2.819175
 C        -0.169093         1.549959         2.196338
 C        -2.616590         1.157433         2.322465
 C        -1.927419        -0.093351         1.814474
 H         0.008395        -0.460777        -0.481676
 H        -0.898394         2.644705         0.005017
 H        -1.917388         1.278027        -0.684133
 H        -3.707938         2.528802         0.826909
 H        -1.332061         2.404967         3.909062
 H         0.552684         2.400101         1.906487
 H         0.318796         0.826654         2.872926
 H        -3.371149         1.148073         3.149358
 H        -1.562526        -0.900550         2.580456
 H        -2.635589        -0.711125         1.161600
