19
Iteration:  4915charge 0 multiplicity 1
 O         0.161795        -0.072964         0.265575
 C        -0.829962         0.715371         1.056207
 C        -1.619044         1.864670         0.274630
 C        -2.593368         2.283874         1.285079
 O        -2.115220         3.223774         2.271186
 C        -1.446484         2.108967         2.899699
 C        -0.149681         1.413606         2.246817
 C        -2.573777         1.176394         2.336562
 C        -1.974193        -0.086049         1.707354
 H        -0.204193        -0.066413        -0.651593
 H        -0.930778         2.650683        -0.050106
 H        -2.182399         1.378385        -0.592324
 H        -3.527572         2.442407         0.793904
 H        -1.456834         2.256123         3.996535
 H         0.678540         2.182724         2.009439
 H         0.289903         0.748258         3.046501
 H        -3.449422         1.059671         2.989991
 H        -1.593436        -0.857003         2.447924
 H        -2.557782        -0.646498         0.876902
