19
Iteration:  2178
 O         0.081980        -0.070606         0.279814
 C        -0.806977         0.719278         1.041621
 C        -1.656478         1.606242         0.217956
 C        -2.613275         2.192441         1.216020
 O        -2.178083         3.207080         2.165354
 C        -1.439119         2.177190         2.881841
 C        -0.166089         1.600074         2.189090
 C        -2.522118         1.187600         2.416161
 C        -1.901300        -0.066701         1.888678
 H         0.772887         0.487819        -0.123156
 H        -1.037250         2.418846        -0.288526
 H        -2.081489         1.093338        -0.603436
 H        -3.581552         2.555486         0.998255
 H        -1.175172         2.457887         3.960626
 H         0.662674         2.366187         1.827533
 H         0.459097         0.910387         2.871934
 H        -3.434843         1.099524         2.981232
 H        -1.536211        -0.652321         2.765279
 H        -2.684376        -0.637822         1.394880
