19
Iteration:  1852charge 0 multiplicity 1
 O         0.183503         0.017803         0.184035
 C        -0.753577         0.705445         1.057941
 C        -1.640286         1.641859         0.316839
 C        -2.667646         2.281938         1.247624
 O        -2.007464         3.225329         2.069980
 C        -1.515869         2.146261         2.879567
 C        -0.243607         1.437733         2.232433
 C        -2.690289         1.151273         2.367255
 C        -1.943014        -0.106009         1.965796
 H         1.049661         0.471395         0.269498
 H        -0.997725         2.557149        -0.024253
 H        -2.105618         1.274484        -0.541109
 H        -3.587347         2.788769         0.875894
 H        -1.400078         2.514923         3.939455
 H         0.364307         2.405074         1.928205
 H         0.373618         0.648043         2.762764
 H        -3.551026         1.164144         3.022584
 H        -1.547073        -0.779495         2.837086
 H        -2.396877        -0.759902         1.173823
