19
Iteration:  4328charge 0 multiplicity 1
 O         0.173240         0.008261         0.273791
 C        -0.834369         0.772141         0.985705
 C        -1.576514         1.776386         0.157501
 C        -2.615319         2.212737         1.345179
 O        -1.988769         3.191171         2.211426
 C        -1.458927         2.072732         2.982426
 C        -0.252424         1.440953         2.287254
 C        -2.626518         1.162343         2.372279
 C        -2.015419        -0.054871         1.739542
 H         0.002038         0.270343        -0.649170
 H        -0.924237         2.657678        -0.199918
 H        -2.169729         1.385773        -0.706161
 H        -3.659659         2.524823         1.035623
 H        -1.266212         2.251313         4.082240
 H         0.508698         2.116665         2.075826
 H         0.203607         0.574382         2.825305
 H        -3.441433         1.089297         3.094592
 H        -1.628812        -0.776330         2.506376
 H        -2.447531        -0.592353         0.863516
