19
Iteration:  1184charge 0 multiplicity 1
 O         0.315719         0.090928         0.324077
 C        -0.855798         0.714236         1.158201
 C        -1.582009         1.730467         0.322359
 C        -2.652056         2.221123         1.247444
 O        -1.966003         3.223923         2.119821
 C        -1.528220         2.120522         2.889547
 C        -0.184428         1.443125         2.275990
 C        -2.676164         1.184184         2.335776
 C        -2.073279        -0.150276         1.706738
 H        -0.068402        -0.383918        -0.438711
 H        -0.954352         2.600005        -0.082022
 H        -2.064738         1.339315        -0.636817
 H        -3.582236         2.630748         0.779387
 H        -1.423505         2.313340         3.995649
 H         0.575934         2.132716         1.906537
 H         0.231889         0.754671         2.983205
 H        -3.568858         1.206296         3.075039
 H        -1.919716        -1.008093         2.407227
 H        -2.617209        -0.497088         0.806134
