19
Iteration:  1643
 O         0.071074        -0.199808         0.400883
 C        -0.787185         0.822276         1.022382
 C        -1.627125         1.875330         0.129849
 C        -2.650509         2.302786         1.194091
 O        -2.088552         3.180973         2.116664
 C        -1.497113         2.080886         2.989020
 C        -0.241068         1.534554         2.322769
 C        -2.556517         1.128018         2.392335
 C        -1.832563        -0.065568         1.741208
 H         0.637463         0.095643        -0.321842
 H        -1.059015         2.759159        -0.412888
 H        -2.007619         1.144499        -0.605382
 H        -3.657911         2.600928         0.941269
 H        -1.264312         2.476824         4.024562
 H         0.543783         2.334030         2.194602
 H         0.066845         0.756768         2.924070
 H        -3.446208         0.772855         2.935429
 H        -1.122229        -0.688386         2.411057
 H        -2.541672        -0.811621         1.256391
