19
Iteration:  4096
 O         0.089613        -0.137998         0.337705
 C        -0.796128         0.770964         1.007751
 C        -1.558917         1.851799         0.192594
 C        -2.616900         2.312372         1.326509
 O        -1.993738         3.194025         2.329073
 C        -1.480351         1.967044         2.930144
 C        -0.137152         1.556699         2.196881
 C        -2.675304         1.122833         2.352468
 C        -2.024691        -0.083350         1.633364
 H         0.603311         0.353822        -0.337569
 H        -0.924972         2.782365        -0.077147
 H        -1.938666         1.346366        -0.690467
 H        -3.460518         2.712950         0.740236
 H        -1.553447         2.024246         4.089280
 H         0.463668         2.347708         1.872115
 H         0.365740         0.906997         2.876114
 H        -3.626954         1.223132         2.974063
 H        -1.637481        -0.822454         2.441246
 H        -2.780654        -0.478785         0.901175
