19
Iteration:   652
 O         0.201042        -0.048953         0.321013
 C        -0.759486         0.724668         1.087177
 C        -1.589905         1.800106         0.252248
 C        -2.582723         2.346474         1.259454
 O        -1.945666         3.185090         2.226247
 C        -1.527967         2.007268         2.977123
 C        -0.259266         1.464693         2.409510
 C        -2.723667         1.160692         2.231117
 C        -1.971999        -0.048050         1.613483
 H         0.035358         0.113725        -0.634845
 H        -1.160790         2.611788        -0.413504
 H        -2.096330         1.062550        -0.336688
 H        -3.403125         2.818983         0.685881
 H        -1.626691         2.321805         4.000434
 H         0.430080         2.295656         2.194445
 H         0.374641         0.767952         3.071878
 H        -3.724300         1.113125         2.761164
 H        -1.798039        -0.887444         2.287022
 H        -2.556271        -0.586833         0.801571
