19
Iteration:  3816
 O         0.029825        -0.054854         0.209063
 C        -0.760559         0.812798         1.032857
 C        -1.575870         1.789989         0.206949
 C        -2.617984         2.219647         1.271338
 O        -1.992740         3.221153         2.218785
 C        -1.516404         2.028605         2.940454
 C        -0.145110         1.475185         2.242596
 C        -2.655146         1.137023         2.345286
 C        -1.928714         0.004842         1.753892
 H         0.828912        -0.329790         0.716024
 H        -1.083795         2.690235        -0.324566
 H        -2.118725         1.039419        -0.411346
 H        -3.581170         2.740594         0.997407
 H        -1.538049         2.093563         4.019083
 H         0.584863         2.254071         2.071134
 H         0.106593         0.688426         2.884939
 H        -3.547809         1.039871         3.054484
 H        -1.600985        -0.646639         2.643201
 H        -2.674944        -0.563061         1.100251
