19
Iteration:   439
 O         0.174735        -0.042103         0.327619
 C        -0.767794         0.745270         1.069591
 C        -1.491415         1.839794         0.238550
 C        -2.600619         2.281203         1.232465
 O        -1.971925         3.196526         2.205808
 C        -1.579279         2.060828         3.015840
 C        -0.239926         1.348482         2.359878
 C        -2.693915         1.155676         2.350943
 C        -2.026392        -0.032632         1.556720
 H         0.538607         0.492572        -0.421461
 H        -0.973827         2.719752        -0.013744
 H        -1.952840         1.401651        -0.637252
 H        -3.378042         2.716094         0.597794
 H        -1.582063         2.373001         4.081532
 H         0.628649         2.078132         2.345823
 H         0.089492         0.627085         3.151508
 H        -3.669889         0.977058         2.846756
 H        -1.875279        -1.079036         2.034324
 H        -2.702666        -0.283320         0.724623
