19
Iteration:  3925
 O         0.142430         0.100253         0.245564
 C        -0.823468         0.732335         1.069962
 C        -1.640269         1.746943         0.250209
 C        -2.638786         2.251535         1.228550
 O        -1.891550         3.119599         2.200801
 C        -1.491424         2.034851         2.895131
 C        -0.168572         1.408638         2.345532
 C        -2.654388         1.199801         2.341704
 C        -2.030543        -0.067957         1.751608
 H         0.226400         0.558252        -0.594407
 H        -0.922609         2.446353        -0.304171
 H        -2.163530         1.168282        -0.564928
 H        -3.569991         2.848386         1.039916
 H        -1.439714         2.265732         3.937618
 H         0.604048         2.203716         2.229009
 H         0.331875         0.659683         3.034933
 H        -3.612136         1.175690         2.975745
 H        -1.777200        -0.699189         2.598244
 H        -2.744744        -0.540546         1.040349
