19
Iteration:  4481charge 0 multiplicity 1
 O         0.113419        -0.058103         0.154085
 C        -0.763583         0.700453         0.990719
 C        -1.644265         1.830277         0.280415
 C        -2.633692         2.301833         1.281652
 O        -2.001578         3.262790         2.296371
 C        -1.542053         2.057054         2.965361
 C        -0.174767         1.543758         2.313746
 C        -2.672149         1.160267         2.300644
 C        -1.866359        -0.144388         1.687267
 H         0.117519        -0.977231         0.459030
 H        -0.937182         2.541126        -0.127378
 H        -2.101096         1.318098        -0.581463
 H        -3.568697         2.673577         0.803705
 H        -1.444378         2.361970         4.009068
 H         0.292597         2.520313         2.123512
 H         0.520648         0.724650         2.822560
 H        -3.660422         0.986087         2.790714
 H        -1.401409        -0.643543         2.534375
 H        -2.472511        -0.883237         1.242663
