19
Iteration:  1380charge 0 multiplicity 1
 O         0.179736        -0.067625         0.384537
 C        -0.752586         0.704206         1.119828
 C        -1.531618         1.791020         0.224786
 C        -2.641521         2.236466         1.249540
 O        -2.092316         3.229317         2.167584
 C        -1.500537         2.039832         2.925872
 C        -0.155947         1.557621         2.328810
 C        -2.611880         1.150703         2.274361
 C        -2.034295        -0.053752         1.660874
 H        -0.263874        -0.326907        -0.428981
 H        -0.836698         2.612775        -0.049416
 H        -1.981654         1.464936        -0.728647
 H        -3.524817         2.640561         0.777855
 H        -1.513834         2.289506         3.967104
 H         0.575842         2.311389         1.908461
 H         0.221195         0.809483         3.112993
 H        -3.450006         0.965814         2.957587
 H        -1.640646        -0.689677         2.454427
 H        -2.668848        -0.497652         0.917464
