19
Iteration:  3847charge 0 multiplicity 1
 O         0.090783        -0.161791         0.260986
 C        -0.848120         0.721031         1.012081
 C        -1.552431         1.833315         0.288034
 C        -2.611062         2.277619         1.271858
 O        -2.036641         3.239510         2.338225
 C        -1.496465         2.098032         2.929927
 C        -0.220034         1.607562         2.134053
 C        -2.577946         1.099615         2.310352
 C        -1.985487        -0.126232         1.685449
 H         0.980121        -0.119218         0.624803
 H        -0.877070         2.756839        -0.053833
 H        -2.066000         1.332451        -0.540827
 H        -3.491636         2.868530         0.821195
 H        -1.359400         2.191348         4.017991
 H         0.480841         2.270488         1.656399
 H         0.293265         1.056621         2.987509
 H        -3.392444         1.050118         3.064230
 H        -1.727747        -0.859022         2.396806
 H        -2.642396        -0.646048         0.982080
