19
Iteration:   322charge 0 multiplicity 1
 O         0.157727        -0.007207         0.253483
 C        -0.817426         0.740129         1.011458
 C        -1.486463         1.953330         0.237436
 C        -2.600754         2.362788         1.211343
 O        -2.013057         3.169100         2.226905
 C        -1.556564         2.056336         2.951965
 C        -0.272947         1.395444         2.322917
 C        -2.668422         1.095275         2.329041
 C        -1.964453        -0.140491         1.700188
 H         0.471906        -0.644282         0.908775
 H        -0.768133         2.828052         0.025208
 H        -1.805995         1.543611        -0.828836
 H        -3.596532         2.715073         0.847058
 H        -1.233167         2.430084         3.941294
 H         0.565515         2.139398         2.196407
 H        -0.013275         0.596920         3.121120
 H        -3.642520         1.065247         2.751654
 H        -1.787385        -0.934955         2.433199
 H        -2.530399        -0.599638         0.866610
