19
Iteration:  1565charge 0 multiplicity 1
 O         0.186332         0.024886         0.375878
 C        -0.797679         0.828520         1.007568
 C        -1.670748         1.788216         0.195677
 C        -2.687510         2.275677         1.247307
 O        -1.915809         3.173614         2.055114
 C        -1.550135         2.053463         2.929214
 C        -0.222596         1.456187         2.367807
 C        -2.692495         1.116792         2.390737
 C        -1.854084        -0.062989         1.729878
 H        -0.212016        -0.801845         0.070726
 H        -1.065938         2.578288        -0.316336
 H        -2.234272         1.263496        -0.627532
 H        -3.458106         2.815698         0.758086
 H        -1.543296         2.336027         3.971845
 H         0.442602         2.295923         2.274371
 H         0.168393         0.716058         2.987567
 H        -3.468670         0.897364         3.085684
 H        -1.360660        -0.610049         2.575404
 H        -2.316193        -0.849763         1.029389
