19
Iteration:  4859charge 0 multiplicity 1
 O         0.132005         0.064862         0.356780
 C        -0.821229         0.778645         1.013512
 C        -1.688134         1.731209         0.137594
 C        -2.634431         2.337714         1.320319
 O        -1.946100         3.210526         2.255323
 C        -1.457521         1.956286         2.964952
 C        -0.201357         1.470940         2.287409
 C        -2.606032         1.190649         2.323974
 C        -1.947304        -0.073007         1.652062
 H        -0.203593        -0.747130        -0.047279
 H        -1.040612         2.452440        -0.489267
 H        -2.176133         1.057916        -0.610022
 H        -3.586828         2.730964         0.908899
 H        -1.517019         2.085265         4.053329
 H         0.492936         2.361408         2.178169
 H         0.340621         0.749741         2.928213
 H        -3.391647         0.824680         2.915994
 H        -1.574088        -0.834199         2.385882
 H        -2.469509        -0.504515         0.716716
