19
Iteration:  1704
 O         0.206566         0.121704         0.359803
 C        -0.861556         0.721687         1.045026
 C        -1.706088         1.649963         0.172002
 C        -2.619221         2.192439         1.267825
 O        -1.954736         3.240473         2.083826
 C        -1.464400         2.073128         2.958167
 C        -0.250056         1.535042         2.176045
 C        -2.599021         1.151805         2.447529
 C        -2.009851        -0.103782         1.740587
 H         0.815759        -0.266934         1.005221
 H        -1.110977         2.480613        -0.103624
 H        -2.070216         1.170302        -0.761160
 H        -3.549149         2.540268         0.821411
 H        -1.323311         2.337613         3.979148
 H         0.561755         2.194719         1.990114
 H         0.170710         0.650027         2.829439
 H        -3.452889         1.092931         3.085644
 H        -1.645319        -0.823305         2.409971
 H        -2.731376        -0.525888         1.079407
