19
Iteration:  1662
 O         0.008279        -0.134905         0.296201
 C        -0.745119         0.759763         1.081855
 C        -1.607528         1.712238         0.221606
 C        -2.633486         2.258806         1.229697
 O        -2.091422         3.263068         2.216777
 C        -1.527095         2.113561         2.858210
 C        -0.166364         1.543852         2.286589
 C        -2.631309         1.125492         2.277229
 C        -1.795282        -0.044000         1.807061
 H         0.906734         0.230308         0.251371
 H        -1.082259         2.485707        -0.198613
 H        -2.212392         1.271993        -0.561043
 H        -3.505091         2.660842         0.774728
 H        -1.599502         2.194881         3.915812
 H         0.540737         2.327554         2.012196
 H         0.249748         0.759440         3.004068
 H        -3.473920         1.013327         2.943378
 H        -1.434681        -0.658320         2.655135
 H        -2.221464        -0.693036         0.973191
