19
Iteration:  3752charge 0 multiplicity 1
 O         0.142774         0.087353         0.266817
 C        -0.825831         0.745222         1.095195
 C        -1.714023         1.723100         0.119459
 C        -2.678794         2.346493         1.306511
 O        -2.002460         3.192145         2.171543
 C        -1.425582         2.035872         2.936940
 C        -0.156129         1.424364         2.315420
 C        -2.591872         1.213043         2.351534
 C        -1.960485        -0.039112         1.742963
 H         0.476690        -0.768641         0.603893
 H        -1.118000         2.406605        -0.460026
 H        -2.192982         0.948864        -0.506671
 H        -3.629954         2.686499         0.876703
 H        -1.402639         2.152728         4.002011
 H         0.743880         2.007154         1.943465
 H         0.406732         0.539348         2.744626
 H        -3.537618         0.928647         2.936127
 H        -1.599312        -0.811146         2.560924
 H        -2.588202        -0.652530         0.993180
