19
Iteration:   326
 O         0.136654        -0.046534         0.256052
 C        -0.783850         0.783709         1.042533
 C        -1.501088         1.941506         0.228149
 C        -2.606041         2.341775         1.202075
 O        -2.044317         3.155542         2.222834
 C        -1.529985         2.058264         2.959146
 C        -0.209792         1.407808         2.328914
 C        -2.652207         1.107788         2.333460
 C        -2.007144        -0.128188         1.673861
 H         0.534841        -0.609694         0.969509
 H        -0.813335         2.824905         0.130752
 H        -1.712570         1.696677        -0.769129
 H        -3.544899         2.680490         0.766104
 H        -1.328450         2.325196         4.001726
 H         0.453773         2.239497         2.104522
 H        -0.075042         0.669191         3.090027
 H        -3.596688         1.085009         2.900081
 H        -1.818850        -1.019847         2.304766
 H        -2.524656        -0.506488         0.742800
