19
Iteration:  4788charge 0 multiplicity 1
 O         0.094829        -0.088063         0.217977
 C        -0.749840         0.726940         1.061424
 C        -1.583684         1.805673         0.255923
 C        -2.647445         2.302123         1.339580
 O        -2.000499         3.229292         2.169104
 C        -1.511963         2.058381         2.950574
 C        -0.179623         1.487765         2.372784
 C        -2.637705         1.101491         2.335548
 C        -1.921167        -0.059937         1.652838
 H        -0.164568         0.162168        -0.679254
 H        -0.912736         2.567644        -0.066052
 H        -2.106597         1.421039        -0.658490
 H        -3.696979         2.635091         0.978514
 H        -1.509517         2.203401         4.065860
 H         0.439159         2.382828         2.246945
 H         0.310214         0.758288         3.048437
 H        -3.466348         1.176078         3.115431
 H        -1.606045        -0.785973         2.458881
 H        -2.443336        -0.571936         0.798570
