19
Iteration:   657charge 0 multiplicity 1
 O         0.197155        -0.032485         0.334139
 C        -0.745374         0.763004         1.090905
 C        -1.638439         1.763851         0.214642
 C        -2.556410         2.339107         1.257052
 O        -1.881655         3.170050         2.249259
 C        -1.648137         1.996724         2.953372
 C        -0.248975         1.469774         2.383561
 C        -2.675083         1.180368         2.253653
 C        -1.999737        -0.051991         1.632488
 H         0.172499         0.302798        -0.584219
 H        -1.111055         2.554330        -0.335881
 H        -2.156450         0.942741        -0.379062
 H        -3.346522         2.855397         0.717173
 H        -1.679657         2.269963         4.042549
 H         0.465317         2.257494         2.062783
 H         0.245467         0.736424         2.990267
 H        -3.629995         0.967930         2.671771
 H        -1.737183        -0.845043         2.361229
 H        -2.544719        -0.492821         0.826648
