19
Iteration:  4937charge 0 multiplicity 1
 O         0.172133         0.004035         0.333636
 C        -0.819472         0.845154         1.027948
 C        -1.651920         1.699335         0.140234
 C        -2.655644         2.294031         1.294141
 O        -1.902494         3.177106         2.211464
 C        -1.454523         1.955564         2.989285
 C        -0.255073         1.493706         2.279467
 C        -2.646522         1.154393         2.425688
 C        -1.989576        -0.011018         1.681104
 H        -0.038532         0.146314        -0.596050
 H        -1.055725         2.496788        -0.291117
 H        -2.082572         1.031509        -0.669633
 H        -3.569155         2.732149         0.918355
 H        -1.386416         2.267932         4.047342
 H         0.549665         2.285186         2.077250
 H         0.349289         0.671200         2.707152
 H        -3.564747         0.877404         2.971149
 H        -1.525189        -0.835854         2.291875
 H        -2.740756        -0.461531         0.902907
