19
Iteration:  3901charge 0 multiplicity 1
 O         0.107719         0.024192         0.236681
 C        -0.856888         0.788323         1.029479
 C        -1.741969         1.728780         0.241920
 C        -2.557991         2.289027         1.352267
 O        -1.864503         3.326187         2.087004
 C        -1.516892         2.005705         2.953976
 C        -0.308073         1.364727         2.387126
 C        -2.641251         1.070910         2.351527
 C        -1.876148        -0.107107         1.704790
 H         0.710316         0.671281        -0.203714
 H        -1.037717         2.462361        -0.339012
 H        -2.217422         1.171490        -0.541134
 H        -3.529953         2.861790         1.123068
 H        -1.390395         2.372623         3.980021
 H         0.526731         2.055999         2.266513
 H         0.134659         0.619205         3.212967
 H        -3.584878         1.087085         2.966155
 H        -1.518379        -0.811887         2.365980
 H        -2.422105        -0.500033         0.859754
