19
Iteration:  4106
 O         0.053548        -0.117591         0.299795
 C        -0.707919         0.744010         1.019319
 C        -1.512695         1.861297         0.217924
 C        -2.601552         2.337413         1.221278
 O        -2.091032         3.198090         2.324395
 C        -1.492033         1.933888         2.947748
 C        -0.140824         1.436258         2.222173
 C        -2.639214         1.165696         2.345826
 C        -2.013064         0.024245         1.714106
 H         0.372046         0.335365        -0.513993
 H        -0.900723         2.730043        -0.209296
 H        -2.196059         1.595018        -0.625640
 H        -3.510426         2.673722         0.735414
 H        -1.353224         2.096762         4.103785
 H         0.383619         2.306711         1.916384
 H         0.497771         0.892667         2.854697
 H        -3.493624         0.842757         3.058442
 H        -1.850041        -0.807203         2.533396
 H        -2.492909        -0.710906         1.031970
