19
Iteration:  2662
 O         0.265671        -0.120179         0.314855
 C        -0.790782         0.726284         0.953255
 C        -1.570830         1.815118         0.236144
 C        -2.627074         2.327384         1.335166
 O        -2.051082         3.262300         2.264292
 C        -1.546169         2.000220         2.892308
 C        -0.184910         1.456516         2.177157
 C        -2.654386         1.234166         2.347444
 C        -2.014691        -0.044505         1.749842
 H        -0.205543        -0.955374         0.046437
 H        -1.013989         2.706787         0.142682
 H        -1.947624         1.497538        -0.810495
 H        -3.570239         2.459521         0.853501
 H        -1.412677         2.123073         3.971975
 H         0.470209         2.384485         1.984036
 H         0.126273         0.763892         2.940314
 H        -3.605610         1.188296         3.036703
 H        -1.459577        -0.685522         2.414029
 H        -2.571133        -0.653372         0.985922
