19
Iteration:  3614charge 0 multiplicity 1
 O         0.127181         0.029143         0.185048
 C        -0.801380         0.687036         1.019303
 C        -1.646597         1.722376         0.289911
 C        -2.655038         2.319003         1.352657
 O        -1.992883         3.286226         2.172900
 C        -1.483683         2.072633         2.902819
 C        -0.233190         1.446334         2.285615
 C        -2.572698         1.203723         2.336074
 C        -1.920351        -0.160607         1.730037
 H         0.721690        -0.547953         0.705340
 H        -1.074631         2.543699        -0.194844
 H        -2.346488         1.265289        -0.542248
 H        -3.590861         2.627480         0.886932
 H        -1.391715         2.313643         4.040405
 H         0.630224         2.121527         2.033500
 H         0.149626         0.758420         2.986114
 H        -3.556228         1.126955         2.887500
 H        -1.837302        -0.798590         2.598484
 H        -2.524221        -0.653833         0.992792
