19
Iteration:  2062
 O         0.039279         0.028415         0.281772
 C        -0.825534         0.824090         1.088069
 C        -1.664251         1.710021         0.174755
 C        -2.682279         2.093808         1.289981
 O        -1.999189         3.095574         2.029824
 C        -1.408847         2.118908         2.916183
 C        -0.213505         1.651870         2.250547
 C        -2.591796         1.136746         2.455466
 C        -1.864049        -0.001857         1.808980
 H         0.355962        -0.726254         0.830945
 H        -1.173476         2.563476        -0.377728
 H        -1.948653         1.006248        -0.634647
 H        -3.653981         2.458820         0.850214
 H        -1.378498         2.425627         3.926330
 H         0.518447         2.363767         1.872219
 H         0.405973         0.880095         2.939384
 H        -3.369073         1.189040         3.141410
 H        -1.334353        -0.604249         2.571487
 H        -2.493710        -0.658747         1.204999
