19
Iteration:  1150
 O         0.146962        -0.132220         0.398876
 C        -0.753810         0.849387         1.059891
 C        -1.591262         1.855725         0.114995
 C        -2.635743         2.270924         1.206060
 O        -2.025049         3.188889         2.250109
 C        -1.543149         2.077795         2.948799
 C        -0.218338         1.537284         2.310699
 C        -2.629908         1.145030         2.280191
 C        -1.856433        -0.095030         1.692125
 H        -0.482516        -0.825520         0.150472
 H        -0.914293         2.695341        -0.108832
 H        -2.327154         1.474575        -0.656286
 H        -3.528513         2.520615         0.644853
 H        -1.707416         2.155389         4.062668
 H         0.512220         2.301575         2.089472
 H         0.275314         0.723642         2.840508
 H        -3.588257         1.055019         2.974754
 H        -1.430873        -0.754518         2.477508
 H        -2.436290        -0.661027         0.917517
