19
Iteration:  1594charge 0 multiplicity 1
 O         0.254520         0.124680         0.343851
 C        -0.832399         0.636347         1.043395
 C        -1.657972         1.626145         0.167978
 C        -2.571167         2.275967         1.231462
 O        -2.016394         3.263063         2.178618
 C        -1.528653         2.081122         2.943262
 C        -0.136758         1.492351         2.295282
 C        -2.648990         1.185514         2.347287
 C        -2.032652        -0.138920         1.801348
 H         0.087236        -0.067575        -0.608406
 H        -0.963894         2.164275        -0.357287
 H        -2.383956         1.191135        -0.531867
 H        -3.413988         2.772315         0.658316
 H        -1.543773         2.294809         4.014702
 H         0.414541         2.356529         1.979018
 H         0.447523         0.829719         3.067906
 H        -3.604133         1.176913         2.935156
 H        -1.742361        -0.807936         2.593976
 H        -2.625379        -0.729762         1.060506
