19
Iteration:  4331charge 0 multiplicity 1
 O         0.162502        -0.013496         0.261094
 C        -0.821087         0.785602         1.025181
 C        -1.561578         1.795804         0.170805
 C        -2.625426         2.211091         1.317686
 O        -2.029318         3.189708         2.222729
 C        -1.411822         2.078111         2.965467
 C        -0.260045         1.420067         2.288714
 C        -2.614200         1.152033         2.356076
 C        -2.010747        -0.041242         1.755690
 H         0.002402         0.351609        -0.618440
 H        -0.889951         2.546724        -0.144603
 H        -2.180176         1.431336        -0.735047
 H        -3.651697         2.585702         0.964133
 H        -1.373447         2.259554         4.035517
 H         0.491745         2.140133         2.038662
 H         0.119031         0.594627         2.786164
 H        -3.325398         1.117932         3.236728
 H        -1.558499        -0.794434         2.425724
 H        -2.531945        -0.589945         0.845541
