19
Iteration:  3278
 O         0.092734         0.100594         0.161748
 C        -0.801090         0.684831         1.030976
 C        -1.658186         1.734813         0.264576
 C        -2.623899         2.204553         1.288674
 O        -1.849581         3.161428         2.111688
 C        -1.519068         2.105976         2.963797
 C        -0.233553         1.568111         2.312105
 C        -2.693181         1.113806         2.364817
 C        -1.974823        -0.043958         1.820845
 H         0.414226        -0.773982         0.499842
 H        -0.879993         2.519761        -0.130366
 H        -2.049328         1.043384        -0.506712
 H        -3.544359         2.589715         0.926335
 H        -1.282011         2.303784         3.986503
 H         0.524372         2.319130         2.127989
 H         0.343726         0.948544         2.945800
 H        -3.614788         1.027152         2.898569
 H        -1.633698        -0.895815         2.463564
 H        -2.551629        -0.403332         0.982284
