19
Iteration:  1256
 O         0.157856        -0.103466         0.397277
 C        -0.720131         0.710158         1.139492
 C        -1.542763         1.819426         0.282975
 C        -2.667253         2.229531         1.231649
 O        -2.076572         3.222525         2.195026
 C        -1.487607         2.093384         2.894286
 C        -0.166060         1.540229         2.222297
 C        -2.652014         1.157206         2.318273
 C        -1.986029        -0.075683         1.688247
 H         0.068062         0.094902        -0.540700
 H        -0.996855         2.668773        -0.063409
 H        -1.838630         1.427759        -0.712814
 H        -3.605668         2.490690         0.794994
 H        -1.592411         2.210877         3.971993
 H         0.567674         2.269744         1.883175
 H         0.300430         0.852375         3.016792
 H        -3.616685         1.195784         2.861916
 H        -1.754106        -0.964079         2.257794
 H        -2.595508        -0.563698         0.862893
