19
Iteration:  2421
 O         0.123037        -0.127592         0.371488
 C        -0.831520         0.732711         1.036207
 C        -1.556644         1.804153         0.250209
 C        -2.581459         2.182458         1.247939
 O        -2.026891         3.236909         2.201280
 C        -1.478822         2.115289         2.904478
 C        -0.281191         1.573240         2.152847
 C        -2.591191         1.139323         2.435831
 C        -1.965797        -0.079340         1.731952
 H         0.236923         0.198539        -0.538603
 H        -0.861425         2.606113        -0.060305
 H        -1.902500         1.291434        -0.642187
 H        -3.576419         2.418431         0.827480
 H        -1.252790         2.441443         3.953216
 H         0.253644         2.501092         1.663399
 H         0.285174         0.921760         2.839179
 H        -3.539276         1.055705         3.040070
 H        -1.653888        -0.674725         2.628328
 H        -2.517311        -0.845568         1.143735
