19
Iteration:  3836charge 0 multiplicity 1
 O         0.101475        -0.208149         0.185283
 C        -0.829600         0.678500         1.048152
 C        -1.656557         1.793723         0.192706
 C        -2.582408         2.359472         1.270307
 O        -2.087627         3.255004         2.306699
 C        -1.445122         2.126120         2.976833
 C        -0.256380         1.545317         2.288780
 C        -2.589167         1.160691         2.357273
 C        -1.873913        -0.108546         1.650704
 H         0.921802        -0.236348         0.696789
 H        -0.820007         2.605420        -0.045710
 H        -2.116492         1.494813        -0.754854
 H        -3.573319         2.832294         0.929867
 H        -1.414763         2.262282         4.057274
 H         0.249497         2.414279         1.929057
 H         0.439451         0.865949         2.814415
 H        -3.539914         0.971732         2.899082
 H        -1.422184        -0.775801         2.339305
 H        -2.582834        -0.570896         0.970069
