19
Iteration:  3276charge 0 multiplicity 1
 O         0.100187         0.101734         0.153256
 C        -0.783739         0.694660         1.040368
 C        -1.664139         1.730963         0.259812
 C        -2.652145         2.222312         1.279907
 O        -1.844443         3.141397         2.105279
 C        -1.499402         2.100173         2.964315
 C        -0.230861         1.552685         2.316142
 C        -2.692828         1.135250         2.374873
 C        -1.977907        -0.037928         1.807977
 H         0.432751        -0.758835         0.526092
 H        -0.986074         2.458076        -0.114757
 H        -2.058048         0.986470        -0.492696
 H        -3.549659         2.612911         0.904430
 H        -1.327652         2.298614         4.042457
 H         0.520141         2.382521         2.128582
 H         0.300038         0.926969         3.061046
 H        -3.655965         0.975599         2.943112
 H        -1.629485        -0.854891         2.493473
 H        -2.552466        -0.406499         0.967165
