19
Iteration:   568
 O         0.137250         0.075555         0.256958
 C        -0.816618         0.741536         1.091614
 C        -1.582806         1.738678         0.217270
 C        -2.455873         2.427229         1.226112
 O        -1.923107         3.145546         2.230739
 C        -1.543196         1.925563         2.996358
 C        -0.253705         1.470887         2.402138
 C        -2.733018         1.127360         2.255212
 C        -2.019460        -0.068328         1.595909
 H         0.939540        -0.246276         0.689028
 H        -1.005586         2.389180        -0.521123
 H        -2.279939         1.070148        -0.388144
 H        -3.346494         2.791874         0.781096
 H        -1.593985         2.229691         4.056184
 H         0.308932         2.395620         2.244489
 H         0.127955         0.700063         3.011803
 H        -3.732893         1.177253         2.726819
 H        -1.866325        -0.588080         2.517468
 H        -2.545375        -0.529519         0.787357
