19
Iteration:   285charge 0 multiplicity 1
 O         0.218798         0.194808         0.244937
 C        -0.755444         0.723586         1.176246
 C        -1.585737         1.725575         0.182842
 C        -2.595649         2.353894         1.196025
 O        -1.859478         3.109545         2.227149
 C        -1.531530         1.951773         2.976035
 C        -0.229621         1.461930         2.418180
 C        -2.758681         1.198137         2.237691
 C        -2.087994        -0.082973         1.667206
 H         0.338093        -0.751608         0.303640
 H        -0.986318         2.234101        -0.532277
 H        -2.235087         0.978577        -0.367668
 H        -3.431427         2.969780         0.881170
 H        -1.491975         2.231702         4.061827
 H         0.333077         2.407599         2.186266
 H         0.334125         0.649743         2.963551
 H        -3.851120         1.044701         2.621877
 H        -1.912709        -0.939798         2.367894
 H        -2.727251        -0.386921         0.837000
