19
Iteration:  2120charge 0 multiplicity 1
 O         0.141613         0.085418         0.292306
 C        -0.817572         0.725335         1.096356
 C        -1.746401         1.615903         0.132243
 C        -2.634564         2.165345         1.230542
 O        -2.053622         3.226162         2.088804
 C        -1.440808         2.097984         2.932050
 C        -0.183990         1.614652         2.154515
 C        -2.565405         1.142644         2.475914
 C        -1.911750        -0.052106         1.890807
 H         0.650453        -0.588090         0.781156
 H        -1.241622         2.441572        -0.204699
 H        -2.101985         0.903496        -0.614422
 H        -3.557822         2.654755         0.808891
 H        -1.268023         2.243066         4.013883
 H         0.359547         2.335996         1.521533
 H         0.638991         0.869996         2.695140
 H        -3.471177         1.065606         3.278600
 H        -1.586598        -0.825287         2.625339
 H        -2.654952        -0.513824         1.168432
