19
Iteration:  1352charge 0 multiplicity 1
 O         0.319706         0.099553         0.393246
 C        -0.827961         0.673643         1.061842
 C        -1.631093         1.795786         0.196672
 C        -2.628216         2.263194         1.236878
 O        -1.985923         3.259000         2.132369
 C        -1.530562         2.048425         2.932718
 C        -0.306295         1.349543         2.296849
 C        -2.674328         1.190276         2.359424
 C        -1.972695        -0.069730         1.712958
 H         0.027230        -0.660744        -0.116306
 H        -0.925833         2.579492        -0.216410
 H        -2.151861         1.447334        -0.777250
 H        -3.499894         2.833232         0.749119
 H        -1.280736         2.427982         3.973793
 H         0.603930         1.817972         1.954269
 H        -0.102251         0.625901         3.051397
 H        -3.569168         0.998750         2.921995
 H        -1.352273        -0.711743         2.407473
 H        -2.658662        -0.817976         1.203344
