19
Iteration:  3942charge 0 multiplicity 1
 O         0.171725         0.012559         0.303568
 C        -0.797650         0.749940         1.049637
 C        -1.556244         1.792642         0.196738
 C        -2.596810         2.299770         1.298430
 O        -1.962481         3.222922         2.188044
 C        -1.434586         1.945827         3.001162
 C        -0.257900         1.478908         2.202305
 C        -2.692439         1.166985         2.391290
 C        -2.056001        -0.093367         1.746156
 H        -0.073118         0.044733        -0.628495
 H        -1.111838         2.737991        -0.044838
 H        -2.044206         1.395408        -0.680288
 H        -3.486299         2.643197         0.787702
 H        -1.353783         2.090941         4.128343
 H         0.460400         2.255247         1.961888
 H         0.407708         0.778552         2.772411
 H        -3.569494         1.024746         2.997340
 H        -1.676479        -0.924535         2.379076
 H        -2.624718        -0.619812         0.964921
