19
Iteration:   159charge 0 multiplicity 1
 O         0.349053         0.149146         0.417651
 C        -0.792228         0.683225         0.994513
 C        -1.609581         1.845508         0.199464
 C        -2.636682         2.357409         1.228427
 O        -1.927120         3.212031         2.242905
 C        -1.470070         1.999505         2.851997
 C        -0.341290         1.284107         2.415143
 C        -2.634029         1.162271         2.270689
 C        -2.154022        -0.105459         1.639593
 H         0.114172        -0.450132        -0.337414
 H        -0.846357         2.601605        -0.109498
 H        -2.001571         1.517342        -0.742536
 H        -3.575398         2.848652         0.834160
 H        -1.462796         2.258178         3.937190
 H         0.562777         1.956609         2.271195
 H        -0.123396         0.536866         3.274056
 H        -3.464964         1.137609         3.000412
 H        -1.886222        -0.957654         2.299136
 H        -2.829593        -0.657751         0.936356
