19
Iteration:  3425charge 0 multiplicity 1
 O         0.055016        -0.018221         0.288978
 C        -0.810316         0.748215         1.107272
 C        -1.601181         1.788868         0.193282
 C        -2.641160         2.255003         1.294463
 O        -1.956060         3.157627         2.146206
 C        -1.472775         2.006227         2.943801
 C        -0.193081         1.534219         2.265033
 C        -2.595885         1.147409         2.380431
 C        -1.955476        -0.012639         1.675334
 H         0.457676        -0.749733         0.810195
 H        -1.063567         2.731918        -0.151689
 H        -2.115290         1.311435        -0.699772
 H        -3.612852         2.685543         0.880495
 H        -1.512660         2.363258         4.012990
 H         0.413270         2.358829         1.918240
 H         0.620074         1.038424         2.727512
 H        -3.514329         0.975964         3.036526
 H        -1.734293        -0.828988         2.310025
 H        -2.710082        -0.443697         1.000269
