19
Iteration:  4775charge 0 multiplicity 1
 O         0.113265        -0.189861         0.204831
 C        -0.739171         0.709730         1.040774
 C        -1.607079         1.854530         0.221295
 C        -2.695528         2.296230         1.257804
 O        -2.002955         3.282637         2.295861
 C        -1.560888         2.029987         2.966687
 C        -0.189033         1.511275         2.325815
 C        -2.600428         1.159883         2.332547
 C        -1.885743        -0.048512         1.708221
 H         0.109804         0.142015        -0.723191
 H        -1.155857         2.745117         0.002848
 H        -1.989419         1.260920        -0.654916
 H        -3.584234         2.756978         0.876915
 H        -1.587628         2.167387         4.090476
 H         0.598009         2.252140         1.956418
 H         0.366398         0.943612         3.134226
 H        -3.542381         0.656167         2.727502
 H        -1.457689        -0.794855         2.396312
 H        -2.613990        -0.492354         1.075524
