19
Iteration:   690charge 0 multiplicity 1
 O         0.202193         0.053854         0.371518
 C        -0.856410         0.773731         1.053118
 C        -1.620441         1.843874         0.216571
 C        -2.578214         2.326532         1.225319
 O        -1.895901         3.126985         2.161408
 C        -1.579519         2.030941         2.943786
 C        -0.246705         1.332188         2.292676
 C        -2.661112         1.191196         2.298448
 C        -2.048031        -0.139984         1.688854
 H         0.975556         0.526113         0.690625
 H        -1.089401         2.697535        -0.237525
 H        -2.105041         1.346422        -0.735288
 H        -3.468700         2.895282         0.890409
 H        -1.392083         2.282893         4.023891
 H         0.491223         2.105566         1.919992
 H         0.161486         0.599882         2.980273
 H        -3.603371         1.086001         2.810929
 H        -1.571027        -0.670409         2.540370
 H        -2.642009        -0.787228         1.087923
