19
Iteration:  1055
 O         0.193306         0.004902         0.333397
 C        -0.806056         0.717910         1.076411
 C        -1.633331         1.805332         0.177888
 C        -2.655083         2.252355         1.259269
 O        -1.900542         3.194183         2.111889
 C        -1.567614         2.051714         2.948750
 C        -0.257928         1.459161         2.330934
 C        -2.666393         1.128246         2.241597
 C        -1.937994        -0.059812         1.786926
 H         0.457246         0.486294        -0.466175
 H        -0.939260         2.554835        -0.296460
 H        -2.259797         1.213864        -0.511322
 H        -3.634112         2.854325         1.180228
 H        -1.669228         2.242370         4.040934
 H         0.541631         2.254934         2.250681
 H         0.200934         0.567695         2.990707
 H        -3.532415         1.051902         2.920457
 H        -1.493820        -0.487870         2.740540
 H        -2.486696        -0.903380         1.285802
