19
Iteration:  4361charge 0 multiplicity 1
 O        -0.001912        -0.164424         0.199102
 C        -0.741179         0.731739         1.080231
 C        -1.535172         1.853697         0.315475
 C        -2.640580         2.237258         1.369549
 O        -2.079785         3.286215         2.225571
 C        -1.506927         2.139558         2.953612
 C        -0.114555         1.494920         2.235368
 C        -2.647818         1.078395         2.281336
 C        -1.917958        -0.105682         1.687065
 H         0.634955         0.425268        -0.265926
 H        -0.801878         2.681333         0.110153
 H        -2.049902         1.615088        -0.625283
 H        -3.667487         2.524028         1.007806
 H        -1.455158         2.389980         4.024442
 H         0.471218         2.296143         1.919739
 H         0.431837         0.795501         2.921489
 H        -3.526026         0.933549         2.895776
 H        -1.594859        -0.850277         2.433417
 H        -2.321499        -0.642187         0.839073
