19
Iteration:  4396
 O         0.065447        -0.020412         0.306905
 C        -0.849428         0.784457         1.041466
 C        -1.676477         1.809717         0.099939
 C        -2.572217         2.283157         1.327717
 O        -1.967600         3.181782         2.278780
 C        -1.462039         2.015290         3.004219
 C        -0.155918         1.498020         2.197689
 C        -2.680017         1.106352         2.291178
 C        -1.905940        -0.058749         1.719568
 H         0.999822         0.117616         0.573634
 H        -1.068947         2.524071        -0.404122
 H        -2.298877         1.172094        -0.629546
 H        -3.584624         2.635410         0.912269
 H        -1.547924         2.155248         4.043317
 H         0.448767         2.318485         2.034988
 H         0.471326         0.778912         2.641339
 H        -3.645524         1.080366         2.873719
 H        -1.580893        -0.714686         2.531730
 H        -2.564342        -0.626941         0.997674
