19
Iteration:    47charge 0 multiplicity 1
 O         0.236356         0.111687         0.378809
 C        -0.808903         0.720140         1.127374
 C        -1.482122         1.794955         0.282831
 C        -2.557902         2.333657         1.230538
 O        -1.842140         3.182807         2.229961
 C        -1.586733         1.964464         2.990417
 C        -0.336358         1.359828         2.401168
 C        -2.727313         1.154393         2.245344
 C        -2.083678        -0.033703         1.471769
 H        -0.136102        -0.177956        -0.459084
 H        -0.869276         2.485181        -0.169497
 H        -2.023513         1.173306        -0.462985
 H        -3.376659         2.852882         0.710125
 H        -1.641394         2.083393         4.085523
 H         0.356024         2.171913         2.125266
 H         0.180185         0.626551         3.094903
 H        -3.695254         1.070059         2.770844
 H        -1.909324        -0.896660         2.142292
 H        -2.612179        -0.339228         0.564882
