19
Iteration:  4237charge 0 multiplicity 1
 O        -0.041993        -0.038706         0.155132
 C        -0.803971         0.766712         1.097546
 C        -1.546459         1.857060         0.355966
 C        -2.644358         2.228916         1.222394
 O        -2.073554         3.195327         2.266275
 C        -1.458939         2.093829         2.919918
 C        -0.101305         1.454535         2.285048
 C        -2.580309         1.120828         2.303517
 C        -1.935472        -0.074928         1.671441
 H         0.604099        -0.527171         0.721208
 H        -0.915272         2.810408         0.213932
 H        -1.935413         1.557484        -0.621927
 H        -3.470039         2.553762         0.654327
 H        -1.564337         2.327636         4.029216
 H         0.556436         2.342178         1.853994
 H         0.492505         0.731683         2.944607
 H        -3.417345         0.949707         3.020245
 H        -1.735957        -0.820133         2.512592
 H        -2.353877        -0.513376         0.780391
