19
Iteration:  2399
 O         0.033153        -0.115247         0.276631
 C        -0.781001         0.711134         1.100332
 C        -1.643215         1.713787         0.171846
 C        -2.662439         2.301641         1.271610
 O        -2.109370         3.226583         2.156864
 C        -1.482168         2.134328         2.890327
 C        -0.065223         1.539463         2.301416
 C        -2.578017         1.173100         2.382305
 C        -1.893182        -0.084923         1.756102
 H         0.931442         0.293374         0.259388
 H        -0.927877         2.480388        -0.208740
 H        -2.046275         1.131813        -0.644830
 H        -3.643148         2.702765         0.943715
 H        -1.600491         2.298747         3.993679
 H         0.633777         2.397752         1.897778
 H         0.367793         0.715561         2.891720
 H        -3.451444         1.069538         3.059909
 H        -1.637378        -0.868615         2.503356
 H        -2.579603        -0.585762         1.004984
