19
Iteration:  3396charge 0 multiplicity 1
 O         0.154471         0.123386         0.163122
 C        -0.799958         0.681136         1.094499
 C        -1.682225         1.691955         0.184571
 C        -2.652510         2.292445         1.272094
 O        -1.897988         3.218715         2.144188
 C        -1.488430         2.095121         2.918774
 C        -0.261284         1.449570         2.329947
 C        -2.653434         1.154350         2.367518
 C        -1.926703        -0.094293         1.771814
 H         0.638407        -0.565754         0.606478
 H        -1.206340         2.499335        -0.176060
 H        -2.326871         1.160676        -0.506824
 H        -3.498934         2.868753         0.963719
 H        -1.419478         2.499291         3.938141
 H         0.805761         1.842265         2.342873
 H        -0.045121         0.542397         3.010801
 H        -3.522008         1.095226         3.010828
 H        -1.702059        -0.830417         2.610959
 H        -2.676220        -0.538576         1.125143
