19
Iteration:  1859
 O         0.178346        -0.011176         0.162836
 C        -0.730675         0.703728         1.039481
 C        -1.614149         1.673451         0.253473
 C        -2.702250         2.268229         1.299699
 O        -2.032763         3.281542         2.109194
 C        -1.552123         2.174571         2.844418
 C        -0.218447         1.467336         2.239892
 C        -2.662293         1.185292         2.420005
 C        -1.937927        -0.159043         1.902987
 H         1.098117         0.210616         0.453653
 H        -0.993774         2.495534        -0.034198
 H        -2.116413         1.120392        -0.626360
 H        -3.545366         2.632478         0.748467
 H        -1.362680         2.384343         3.904861
 H         0.611766         2.190541         2.034719
 H         0.120912         0.744996         3.031845
 H        -3.554554         1.056738         3.160419
 H        -1.642003        -0.671349         2.776682
 H        -2.364721        -0.968140         1.312207
