19
Iteration:  4600
 O         0.147812        -0.010538         0.192615
 C        -0.806077         0.688775         1.028966
 C        -1.607345         1.797795         0.271503
 C        -2.653979         2.282710         1.343080
 O        -1.944854         3.192682         2.184154
 C        -1.512843         2.022509         2.987134
 C        -0.193822         1.512479         2.240181
 C        -2.648410         1.150597         2.386488
 C        -2.006720        -0.062249         1.623436
 H         0.918392        -0.337515         0.692851
 H        -1.213114         2.736571        -0.060722
 H        -2.190799         1.371273        -0.569579
 H        -3.607119         2.699610         0.962014
 H        -1.316426         2.258116         4.091824
 H         0.443295         2.426456         1.892529
 H         0.373901         0.853031         2.850099
 H        -3.586557         0.978944         3.008594
 H        -1.669070        -0.610242         2.594684
 H        -2.676920        -0.721691         1.057452
