19
Iteration:  2290charge 0 multiplicity 1
 O        -0.051554        -0.126768         0.337028
 C        -0.787984         0.771649         1.075172
 C        -1.588158         1.736858         0.206584
 C        -2.652470         2.194963         1.225595
 O        -2.093420         3.191063         2.126951
 C        -1.471191         2.106595         2.917404
 C        -0.177502         1.615704         2.189556
 C        -2.568829         1.115918         2.411631
 C        -1.816832        -0.015354         1.803375
 H         0.801973         0.341263         0.153269
 H        -0.943496         2.550460        -0.207103
 H        -2.122646         1.271051        -0.576584
 H        -3.657515         2.458983         0.822164
 H        -1.482266         2.287834         3.996236
 H         0.653703         2.441187         1.970880
 H         0.474413         0.883294         2.718368
 H        -3.351949         0.844472         3.100186
 H        -1.324131        -0.507683         2.634218
 H        -2.413694        -0.639063         1.137133
