19
Iteration:  3208
 O         0.072290        -0.074653         0.242334
 C        -0.807445         0.726396         1.089497
 C        -1.563966         1.794022         0.241032
 C        -2.664753         2.211231         1.280906
 O        -2.049151         3.235635         2.190485
 C        -1.486514         1.984546         2.940137
 C        -0.107920         1.569003         2.187734
 C        -2.598227         1.178204         2.353292
 C        -1.996948        -0.049934         1.780415
 H         0.924316        -0.191506         0.722893
 H        -1.085817         2.625680        -0.065293
 H        -2.172518         1.283200        -0.587688
 H        -3.601267         2.582583         0.845225
 H        -1.212371         2.112155         4.037420
 H         0.590676         2.308473         1.663794
 H         0.655483         1.205065         2.812439
 H        -3.640627         1.033052         2.769093
 H        -1.844266        -0.822802         2.539971
 H        -2.707716        -0.393942         0.984861
