19
Iteration:  4957
 O         0.196739         0.094192         0.388354
 C        -0.821709         0.697118         1.011752
 C        -1.776880         1.815229         0.240512
 C        -2.647880         2.291793         1.326094
 O        -1.772979         3.165391         2.135832
 C        -1.511337         1.974772         2.947693
 C        -0.248034         1.482491         2.301924
 C        -2.651326         1.135268         2.305858
 C        -1.968168        -0.139621         1.691773
 H         0.144853         0.092401        -0.587041
 H        -1.284617         2.636796        -0.329336
 H        -2.519502         1.381023        -0.452045
 H        -3.535421         2.947961         1.166399
 H        -1.500892         2.268127         3.997800
 H         0.446567         2.218175         1.872556
 H         0.408426         0.844691         2.856920
 H        -3.579684         1.052627         2.838138
 H        -1.608820        -0.763331         2.539269
 H        -2.663007        -0.637738         0.934628
