19
Iteration:  3364charge 0 multiplicity 1
 O         0.085555         0.118197         0.233545
 C        -0.850696         0.725186         1.062832
 C        -1.604771         1.707338         0.229843
 C        -2.601040         2.232417         1.230797
 O        -1.909044         3.224212         2.145521
 C        -1.478821         2.008554         2.977122
 C        -0.185318         1.487317         2.250276
 C        -2.678016         1.148512         2.363309
 C        -2.013322        -0.103715         1.781038
 H         0.821148        -0.256159         0.785480
 H        -1.065572         2.566168        -0.183130
 H        -2.109002         1.175514        -0.626664
 H        -3.461104         2.750659         0.929953
 H        -1.319481         2.313527         4.017420
 H         0.491593         2.298617         1.867156
 H         0.192718         0.612271         2.849698
 H        -3.546236         1.247424         2.981760
 H        -1.668902        -0.763436         2.649298
 H        -2.644872        -0.605620         1.040389
