19
Iteration:  3366
 O         0.106743         0.118463         0.212867
 C        -0.856964         0.729503         1.075846
 C        -1.599968         1.699811         0.235225
 C        -2.618130         2.228024         1.233165
 O        -1.909681         3.240595         2.140316
 C        -1.466582         1.994075         2.975843
 C        -0.186708         1.471952         2.263473
 C        -2.693346         1.163528         2.360702
 C        -2.010678        -0.113076         1.784619
 H         0.823397        -0.256956         0.787953
 H        -1.052237         2.675167        -0.199266
 H        -2.164369         1.144348        -0.557855
 H        -3.498495         2.757820         0.888414
 H        -1.355852         2.336294         3.985700
 H         0.499368         2.241797         1.909457
 H         0.245442         0.602726         2.792418
 H        -3.560256         1.270273         2.958503
 H        -1.623560        -0.717314         2.654523
 H        -2.706366        -0.600620         1.101307
