19
Iteration:  3927charge 0 multiplicity 1
 O         0.149126         0.092617         0.250490
 C        -0.821777         0.746558         1.058982
 C        -1.636163         1.754939         0.241085
 C        -2.628076         2.250734         1.243846
 O        -1.897373         3.113650         2.207184
 C        -1.489494         2.026876         2.882947
 C        -0.165376         1.410413         2.346705
 C        -2.663207         1.182841         2.338144
 C        -2.046562        -0.057346         1.767850
 H         0.174294         0.552517        -0.605283
 H        -0.942183         2.425978        -0.256507
 H        -2.130582         1.159807        -0.619107
 H        -3.524897         2.824584         1.027943
 H        -1.396472         2.275134         3.926699
 H         0.579251         2.240428         2.150364
 H         0.260448         0.720535         3.021637
 H        -3.574330         1.229508         2.958549
 H        -1.756902        -0.736499         2.652358
 H        -2.731881        -0.495682         0.993519
