19
Iteration:  4270
 O         0.222191         0.053587         0.194698
 C        -0.861961         0.779039         0.981104
 C        -1.641764         1.777454         0.197694
 C        -2.626661         2.307529         1.256905
 O        -1.965050         3.182733         2.251598
 C        -1.508308         2.049912         2.980097
 C        -0.266970         1.404450         2.299409
 C        -2.585518         1.150222         2.407791
 C        -1.981683        -0.048230         1.731295
 H         0.082090        -0.893759         0.360998
 H        -1.038170         2.675614        -0.207726
 H        -2.255602         1.409456        -0.609032
 H        -3.491151         2.705856         0.795872
 H        -1.414904         2.202966         4.105614
 H         0.500619         2.259011         1.943594
 H         0.334981         0.577762         2.863195
 H        -3.407666         0.946384         3.110940
 H        -1.586980        -0.893216         2.397540
 H        -2.587344        -0.526296         0.970845
