19
Iteration:  2373
 O         0.135094         0.019661         0.238621
 C        -0.796776         0.743095         1.034253
 C        -1.717195         1.694352         0.238231
 C        -2.640454         2.232286         1.294365
 O        -1.919157         3.205044         2.078356
 C        -1.488102         2.097375         2.903378
 C        -0.282666         1.513865         2.270283
 C        -2.663880         1.167725         2.401995
 C        -1.821866        -0.024761         1.816094
 H         0.576167        -0.571541         0.886188
 H        -1.213042         2.578078        -0.294158
 H        -2.272957         1.095099        -0.541198
 H        -3.548026         2.651299         0.928519
 H        -1.445805         2.260762         4.027930
 H         0.355464         2.321704         2.046320
 H         0.103979         0.688710         2.821505
 H        -3.594586         1.003502         2.885426
 H        -1.390442        -0.790058         2.530939
 H        -2.518732        -0.631850         1.250188
