19
Iteration:  3822
 O         0.043422        -0.108318         0.211487
 C        -0.745711         0.758602         0.948613
 C        -1.562050         1.798497         0.168771
 C        -2.652282         2.284968         1.321278
 O        -2.021224         3.259384         2.235510
 C        -1.560504         2.012520         2.993926
 C        -0.158290         1.489280         2.248739
 C        -2.618853         1.153284         2.351282
 C        -1.921504        -0.020657         1.761121
 H         0.873869        -0.337377         0.659788
 H        -1.039732         2.599660        -0.338898
 H        -2.219967         1.206449        -0.474088
 H        -3.600764         2.585725         0.887036
 H        -1.390472         2.273018         4.080955
 H         0.574649         2.302983         2.082186
 H         0.245044         0.762477         3.086077
 H        -3.494565         1.052959         2.915521
 H        -1.615235        -0.725835         2.492272
 H        -2.490370        -0.571725         1.051536
