19
Iteration:  1878
 O         0.094175        -0.030891         0.256225
 C        -0.818160         0.707442         1.055259
 C        -1.649288         1.716513         0.197198
 C        -2.655952         2.189665         1.202967
 O        -2.130883         3.247453         2.135721
 C        -1.431181         2.172199         2.921771
 C        -0.197548         1.527467         2.327564
 C        -2.497278         1.149280         2.364467
 C        -1.871977        -0.036637         1.801985
 H         0.679512        -0.544438         0.859395
 H        -1.090776         2.501687        -0.241503
 H        -2.215547         1.134798        -0.586529
 H        -3.703628         2.468248         0.946289
 H        -1.375457         2.454474         3.955679
 H         0.497295         2.219888         2.027694
 H         0.229227         0.787006         2.967613
 H        -3.393523         1.068920         2.960505
 H        -1.423283        -0.847981         2.395381
 H        -2.591878        -0.531361         1.108435
