19
Iteration:   432
 O         0.160624        -0.017102         0.311974
 C        -0.730366         0.754147         1.057303
 C        -1.524168         1.787215         0.253999
 C        -2.584831         2.276909         1.265160
 O        -1.938770         3.213066         2.153246
 C        -1.579971         2.041793         3.010371
 C        -0.300207         1.367161         2.492360
 C        -2.658803         1.159798         2.348078
 C        -2.010537        -0.054866         1.515334
 H         0.364605         0.676965        -0.357457
 H        -1.041078         2.736572        -0.147721
 H        -1.805843         1.173232        -0.659571
 H        -3.591630         2.615065         0.900611
 H        -1.543463         2.355987         4.054400
 H         0.541978         1.940483         2.120639
 H         0.286565         0.692507         3.149712
 H        -3.603645         0.983258         2.770325
 H        -2.297898        -0.972558         1.962123
 H        -2.614337        -0.045909         0.586053
