19
Iteration:  4701charge 0 multiplicity 1
 O         0.112544         0.081523         0.202391
 C        -0.815969         0.792068         1.010373
 C        -1.691992         1.752056         0.201407
 C        -2.712386         2.267706         1.228147
 O        -1.895428         3.247442         2.201728
 C        -1.469308         2.069216         2.942044
 C        -0.226023         1.368437         2.341599
 C        -2.589126         1.110833         2.385388
 C        -1.955975        -0.065617         1.723038
 H         0.794726        -0.185866         0.857316
 H        -1.058769         2.445468        -0.292041
 H        -2.156014         1.051211        -0.510747
 H        -3.697805         2.731938         0.851353
 H        -1.481474         2.272940         4.010024
 H         0.550032         2.066395         2.365588
 H         0.225759         0.574788         2.873880
 H        -3.377568         0.863369         3.154435
 H        -1.537341        -0.824129         2.425897
 H        -2.634362        -0.505348         0.931311
