19
Iteration:  3872
 O         0.102321        -0.056843         0.294841
 C        -0.881541         0.789901         1.041332
 C        -1.655273         1.805266         0.201700
 C        -2.668327         2.261168         1.245412
 O        -2.019736         3.173020         2.190441
 C        -1.406166         1.949054         2.998352
 C        -0.141499         1.435270         2.256637
 C        -2.629059         1.169920         2.355152
 C        -1.958354         0.026552         1.697710
 H         1.012596         0.207835         0.439923
 H        -0.980662         2.669237        -0.017863
 H        -2.012396         1.244180        -0.731700
 H        -3.578385         2.846382         0.956695
 H        -1.327260         2.210909         4.031979
 H         0.462905         2.309888         1.880769
 H         0.545003         0.867180         2.790476
 H        -3.507490         1.165183         3.087898
 H        -1.675927        -0.830745         2.429062
 H        -2.612352        -0.518860         0.936864
