19
Iteration:  2711charge 0 multiplicity 1
 O         0.198522        -0.014772         0.321701
 C        -0.825658         0.712752         1.019351
 C        -1.635245         1.810887         0.130670
 C        -2.661820         2.221923         1.257084
 O        -1.859829         3.197378         2.165383
 C        -1.525967         2.033936         3.009942
 C        -0.241197         1.466788         2.309036
 C        -2.674176         1.194107         2.358259
 C        -1.992044        -0.056307         1.788788
 H         0.037740         0.116545        -0.613859
 H        -1.102184         2.788853        -0.203796
 H        -2.045766         1.298704        -0.729215
 H        -3.640434         2.727172         0.852788
 H        -1.481220         2.250741         4.103050
 H         0.441440         2.283690         2.153154
 H         0.397574         0.634877         2.792217
 H        -3.573559         0.909634         2.838893
 H        -1.615401        -0.696574         2.639282
 H        -2.584912        -0.564807         1.027429
