19
Iteration:  4026charge 0 multiplicity 1
 O         0.052669         0.124847         0.110238
 C        -0.840134         0.718066         1.082705
 C        -1.542811         1.750594         0.280233
 C        -2.569641         2.331860         1.257962
 O        -1.883453         3.252196         2.182110
 C        -1.542427         2.055624         2.944639
 C        -0.207994         1.369334         2.325730
 C        -2.668793         1.131861         2.368817
 C        -2.021947        -0.167096         1.758951
 H         0.818236        -0.028079         0.715139
 H        -0.950413         2.527802        -0.081197
 H        -2.186736         1.283493        -0.566454
 H        -3.542623         2.667225         0.969341
 H        -1.664842         2.202049         3.983881
 H         0.444665         2.239054         2.022475
 H         0.269290         0.640820         2.932236
 H        -3.561754         0.991960         2.902509
 H        -1.365226        -0.884446         2.306457
 H        -2.671842        -0.667559         1.028023
