19
Iteration:  3398charge 0 multiplicity 1
 O         0.136931         0.122724         0.175373
 C        -0.812547         0.707043         1.100861
 C        -1.681257         1.681363         0.184676
 C        -2.640610         2.280508         1.279201
 O        -1.895511         3.220918         2.145551
 C        -1.468239         2.102055         2.925865
 C        -0.264636         1.464389         2.326544
 C        -2.654249         1.161554         2.371238
 C        -1.928589        -0.105741         1.758648
 H         0.622346        -0.596240         0.619776
 H        -1.132158         2.591896        -0.260323
 H        -2.306313         1.146170        -0.532407
 H        -3.518253         2.784187         0.871951
 H        -1.430908         2.446572         3.940208
 H         0.773166         1.821609         2.374379
 H        -0.005477         0.557304         2.978707
 H        -3.534328         1.041165         2.962538
 H        -1.671333        -0.918756         2.541591
 H        -2.682265        -0.574092         1.120383
