19
Iteration:  2819charge 0 multiplicity 1
 O         0.126204        -0.098646         0.215729
 C        -0.777173         0.731135         1.065517
 C        -1.579877         1.760420         0.144193
 C        -2.559193         2.318260         1.260768
 O        -2.070582         3.241286         2.277986
 C        -1.495058         2.055862         2.882703
 C        -0.208336         1.521925         2.205949
 C        -2.629414         1.148832         2.451225
 C        -2.027542        -0.062881         1.791685
 H         1.089399        -0.095270         0.438081
 H        -0.908149         2.596818        -0.292979
 H        -2.039322         1.256326        -0.718455
 H        -3.523496         2.861110         0.853206
 H        -1.347256         2.083608         3.948711
 H         0.431540         2.325071         1.966644
 H         0.200831         0.751406         2.803326
 H        -3.572136         1.067917         2.971318
 H        -1.670542        -0.872949         2.493684
 H        -2.665004        -0.656900         1.138284
