19
Iteration:  3403
 O         0.098918         0.117315         0.210386
 C        -0.838443         0.765567         1.082043
 C        -1.672345         1.686366         0.197415
 C        -2.611923         2.257039         1.281849
 O        -1.898019         3.225654         2.138577
 C        -1.438162         2.114401         2.943889
 C        -0.255925         1.459963         2.331628
 C        -2.635201         1.174554         2.379825
 C        -1.950483        -0.128394         1.741822
 H         0.555014        -0.616113         0.645117
 H        -1.086461         2.507075        -0.341943
 H        -2.204106         1.106120        -0.599724
 H        -3.552993         2.578503         0.741927
 H        -1.418415         2.302241         4.055605
 H         0.705850         2.002844         2.304340
 H         0.010033         0.620733         2.954524
 H        -3.597113         0.934811         2.919849
 H        -1.583472        -0.940139         2.326780
 H        -2.638407        -0.642249         1.028985
