19
Iteration:  3015
 O         0.181010         0.031172         0.393724
 C        -0.831583         0.751336         1.057994
 C        -1.740100         1.773279         0.211705
 C        -2.667039         2.348125         1.259255
 O        -1.889255         3.241811         2.132460
 C        -1.472062         2.066523         2.879093
 C        -0.263755         1.397589         2.276901
 C        -2.614699         1.121980         2.376222
 C        -1.893807        -0.179560         1.747128
 H        -0.044612         0.339569        -0.505134
 H        -1.180690         2.616148        -0.374188
 H        -2.352689         1.150955        -0.394324
 H        -3.616405         2.849937         0.956258
 H        -1.384609         2.291406         3.920307
 H         0.530788         2.105845         1.933602
 H         0.226874         0.628410         3.025787
 H        -3.644525         1.030643         2.822291
 H        -1.226343        -0.699574         2.468407
 H        -2.600054        -0.750124         1.158829
