19
Iteration:   442
 O         0.179069        -0.047912         0.331487
 C        -0.782728         0.738617         1.074515
 C        -1.485353         1.852982         0.241074
 C        -2.600592         2.284878         1.224869
 O        -1.983409         3.192623         2.218834
 C        -1.571964         2.059683         3.004850
 C        -0.219502         1.357968         2.339699
 C        -2.703519         1.148688         2.339248
 C        -2.040179        -0.033847         1.574062
 H         0.582835         0.422309        -0.410779
 H        -0.886352         2.722279         0.017729
 H        -2.003704         1.456640        -0.658956
 H        -3.364120         2.760583         0.588742
 H        -1.569792         2.321328         4.074865
 H         0.550249         2.103977         2.367541
 H        -0.007185         0.558441         3.092845
 H        -3.613268         1.002076         2.847959
 H        -1.694800        -0.957485         2.057959
 H        -2.704634        -0.336300         0.769741
