19
Iteration:  4241
 O        -0.016070        -0.036702         0.149218
 C        -0.831493         0.787378         1.060605
 C        -1.526790         1.820835         0.365804
 C        -2.640759         2.219690         1.256799
 O        -2.059007         3.230879         2.263854
 C        -1.453623         2.114139         2.915559
 C        -0.107135         1.476015         2.302365
 C        -2.594514         1.095439         2.295694
 C        -1.946883        -0.079702         1.689174
 H         0.538558        -0.634419         0.669180
 H        -0.969968         2.794583         0.260556
 H        -1.919224         1.624868        -0.626212
 H        -3.559873         2.513393         0.671745
 H        -1.414580         2.297790         4.011679
 H         0.500021         2.158632         1.889555
 H         0.371087         0.821694         2.969186
 H        -3.473138         0.885247         2.859475
 H        -1.676288        -0.905860         2.367569
 H        -2.416125        -0.583092         0.808674
