19
Iteration:   830
 O         0.125137        -0.002668         0.240678
 C        -0.796108         0.767690         1.092500
 C        -1.556132         1.815876         0.246465
 C        -2.721766         2.308531         1.206946
 O        -1.891607         3.189941         2.144816
 C        -1.545598         2.042331         2.889436
 C        -0.259072         1.410046         2.347653
 C        -2.725703         1.190079         2.322236
 C        -1.899075        -0.135203         1.728066
 H         0.963511         0.185735         0.706306
 H        -0.892956         2.679642        -0.104327
 H        -2.022075         1.366429        -0.691674
 H        -3.649564         2.701737         0.830515
 H        -1.682708         2.027913         3.992295
 H         0.457223         2.295973         2.228643
 H         0.093514         0.661782         3.115251
 H        -3.473817         1.144706         3.096720
 H        -1.428779        -0.637667         2.593245
 H        -2.489192        -0.933393         1.180124
