19
Iteration:   271
 O         0.195423         0.128287         0.322806
 C        -0.828889         0.771381         1.065907
 C        -1.581803         1.768029         0.232592
 C        -2.575211         2.313592         1.290002
 O        -1.845732         3.121876         2.135081
 C        -1.504595         2.047771         3.025358
 C        -0.239068         1.445672         2.393755
 C        -2.759756         1.050584         2.298524
 C        -2.097474        -0.017087         1.528646
 H         0.398741        -0.759257         0.709065
 H        -1.025689         2.560585        -0.345282
 H        -2.104833         1.198442        -0.464851
 H        -3.448066         2.780926         0.838176
 H        -1.526032         2.259043         4.085786
 H         0.524358         2.165094         2.080683
 H         0.293383         0.942307         3.171445
 H        -3.629319         0.860567         2.908959
 H        -1.846870        -0.854228         2.181344
 H        -2.611273        -0.427610         0.614992
