19
Iteration:  2762
 O         0.119710        -0.067780         0.299303
 C        -0.839772         0.709583         1.063305
 C        -1.632685         1.726806         0.184640
 C        -2.576241         2.255985         1.261513
 O        -1.960742         3.150149         2.160535
 C        -1.476656         2.081163         2.989120
 C        -0.215768         1.554422         2.407063
 C        -2.581884         1.178764         2.409020
 C        -2.024661        -0.023185         1.633029
 H         0.324008         0.410020        -0.505402
 H        -1.004307         2.418459        -0.322283
 H        -2.165255         1.103982        -0.594976
 H        -3.490771         2.709696         0.904707
 H        -1.409398         2.322302         4.011945
 H         0.494211         2.339202         2.117306
 H         0.413905         0.914669         2.926927
 H        -3.588247         1.102594         2.833362
 H        -1.638937        -0.873405         2.187408
 H        -2.732875        -0.292685         0.844972
