19
Iteration:  4614
 O         0.109073        -0.067712         0.287111
 C        -0.819788         0.808430         0.969668
 C        -1.673389         1.847558         0.174598
 C        -2.657655         2.252411         1.313877
 O        -2.004642         3.183657         2.275137
 C        -1.418323         2.028821         2.933492
 C        -0.218495         1.501143         2.227553
 C        -2.595136         1.135971         2.355953
 C        -1.918488        -0.036818         1.700838
 H         0.608028        -0.471341         1.032547
 H        -0.935371         2.550100        -0.147137
 H        -2.070526         1.378510        -0.769286
 H        -3.692698         2.681566         1.000640
 H        -1.343858         2.231736         3.976653
 H         0.428033         2.277792         1.965638
 H         0.221168         0.701032         2.890829
 H        -3.495689         0.946607         3.020740
 H        -1.611557        -0.983365         2.185969
 H        -2.592320        -0.333958         0.859510
