19
Iteration:  1474charge 0 multiplicity 1
 O         0.061032         0.021521         0.286531
 C        -0.750493         0.774392         1.141606
 C        -1.586551         1.753434         0.217532
 C        -2.615346         2.248845         1.208376
 O        -1.887860         3.143484         2.043030
 C        -1.593729         2.084517         3.044428
 C        -0.192789         1.508576         2.349519
 C        -2.699689         1.108861         2.338124
 C        -1.943502        -0.052690         1.722869
 H         0.946018         0.289348         0.593858
 H        -1.135601         2.577560        -0.244243
 H        -1.975745         1.091727        -0.574869
 H        -3.604304         2.626508         0.860640
 H        -1.584602         2.484714         4.090017
 H         0.430323         2.324056         2.071771
 H         0.346031         0.683201         2.823687
 H        -3.657922         0.739690         2.832077
 H        -1.922204        -0.932546         2.402064
 H        -2.454834        -0.354708         0.726003
