19
Iteration:   303
 O         0.205081         0.153406         0.250992
 C        -0.832692         0.727370         1.039669
 C        -1.577935         1.721617         0.234744
 C        -2.534547         2.326188         1.247976
 O        -1.916312         3.261357         2.228510
 C        -1.591410         1.983131         2.982845
 C        -0.302128         1.336639         2.351953
 C        -2.687360         1.186086         2.221655
 C        -1.981634        -0.066463         1.705350
 H         0.385277        -0.761130         0.449900
 H        -0.853072         2.536284        -0.112432
 H        -2.062444         1.434428        -0.656125
 H        -3.360938         2.778194         0.687428
 H        -1.807788         1.885834         4.027779
 H         0.341664         2.145751         2.076104
 H        -0.042927         0.553164         3.027398
 H        -3.519060         1.019787         2.838444
 H        -1.494475        -0.610712         2.531202
 H        -2.537235        -0.897903         1.170400
