19
Iteration:  2845
 O         0.099906         0.097793         0.261521
 C        -0.845944         0.721790         1.088896
 C        -1.703964         1.726148         0.292310
 C        -2.629451         2.272547         1.293248
 O        -1.864186         3.186066         2.062617
 C        -1.468817         2.085904         2.977695
 C        -0.199879         1.516354         2.346020
 C        -2.603014         1.124850         2.341613
 C        -1.999226        -0.103705         1.646506
 H         0.735670        -0.463547         0.753779
 H        -1.082147         2.472810        -0.239588
 H        -2.283906         1.158630        -0.449959
 H        -3.507251         2.812414         0.821383
 H        -1.602964         2.239728         4.105853
 H         0.382297         2.330738         1.870062
 H         0.379279         0.683069         2.810678
 H        -3.426427         0.894007         3.048522
 H        -1.727890        -0.843898         2.435883
 H        -2.659682        -0.663322         0.941423
