19
Iteration:  4687
 O         0.046997         0.193144         0.200227
 C        -0.848298         0.726048         1.126680
 C        -1.658482         1.727748         0.185138
 C        -2.575498         2.262591         1.264210
 O        -1.947965         3.148399         2.167425
 C        -1.467192         2.031322         2.946317
 C        -0.208556         1.425666         2.321299
 C        -2.621306         1.196711         2.344012
 C        -1.901878        -0.102088         1.747833
 H         0.534910        -0.601380         0.530666
 H        -1.167332         2.597112        -0.178937
 H        -2.211843         1.290678        -0.655580
 H        -3.489833         2.658086         0.919094
 H        -1.321261         2.220477         4.057454
 H         0.645883         2.051042         1.946996
 H        -0.038721         0.611748         3.010716
 H        -3.625652         1.275986         2.822487
 H        -1.505514        -0.801077         2.519400
 H        -2.458829        -0.693367         1.040352
