19
Iteration:  1041
 O         0.113663        -0.017785         0.327837
 C        -0.814024         0.742152         1.052869
 C        -1.600219         1.665737         0.203009
 C        -2.557803         2.337822         1.174882
 O        -1.971768         3.204772         2.210817
 C        -1.552503         2.016148         2.964671
 C        -0.258896         1.518175         2.316661
 C        -2.660147         1.175473         2.350369
 C        -1.912384        -0.117441         1.758052
 H         0.494980         0.668407        -0.265649
 H        -0.975085         2.518732        -0.157813
 H        -2.067249         1.172096        -0.710646
 H        -3.369533         2.678756         0.521076
 H        -1.477038         2.245849         4.061830
 H         0.247636         2.375302         1.923093
 H         0.345889         0.920921         2.901394
 H        -3.678425         0.997764         2.842796
 H        -1.493712        -0.739940         2.543889
 H        -2.455117        -0.610209         1.008364
