19
Iteration:  3037charge 0 multiplicity 1
 O         0.094572        -0.168808         0.377002
 C        -0.757836         0.777042         1.009871
 C        -1.697531         1.750701         0.178505
 C        -2.644343         2.267074         1.289524
 O        -2.058187         3.213280         2.215842
 C        -1.405877         2.056705         2.948094
 C        -0.178258         1.547939         2.238484
 C        -2.593885         1.169281         2.356562
 C        -1.923681        -0.011800         1.672875
 H         0.567378         0.377152        -0.287763
 H        -1.014210         2.604296        -0.184386
 H        -2.227701         1.247435        -0.585219
 H        -3.643689         2.618095         0.958248
 H        -1.411928         2.174433         4.012146
 H         0.571060         2.316969         1.987907
 H         0.273952         0.606658         2.790160
 H        -3.460066         1.078913         3.093780
 H        -1.673903        -0.635537         2.566056
 H        -2.575548        -0.506681         0.965792
