19
Iteration:  4901
 O         0.131648        -0.091413         0.242016
 C        -0.787781         0.668286         1.024808
 C        -1.489587         1.811290         0.327220
 C        -2.741695         2.326614         1.314346
 O        -2.114633         3.338795         2.226742
 C        -1.460245         2.019861         2.925414
 C        -0.202002         1.480384         2.235339
 C        -2.595302         1.104570         2.345858
 C        -1.889076        -0.100103         1.695782
 H        -0.330995        -0.353548        -0.564921
 H        -0.799583         2.764264         0.294904
 H        -1.761877         1.673106        -0.719566
 H        -3.720825         2.874893         0.916080
 H        -1.215892         2.199727         3.987328
 H         0.494997         2.233218         1.852496
 H         0.193737         0.716683         2.904598
 H        -3.411103         1.045905         3.012789
 H        -1.487032        -0.867369         2.445085
 H        -2.674274        -0.694169         1.074055
