19
Iteration:  2699
 O         0.088216        -0.010842         0.384496
 C        -0.831254         0.823148         1.066163
 C        -1.580803         1.734242         0.228699
 C        -2.591250         2.234253         1.253947
 O        -1.930928         3.223303         2.176566
 C        -1.497481         1.997509         2.935334
 C        -0.204506         1.530865         2.284232
 C        -2.643558         1.117736         2.379867
 C        -1.955467        -0.037945         1.655626
 H        -0.196102        -0.131854        -0.544899
 H        -0.823420         2.434355        -0.258895
 H        -2.119218         1.198391        -0.554205
 H        -3.664090         2.628984         0.938327
 H        -1.470552         2.125522         4.011449
 H         0.498904         2.277066         1.991642
 H         0.222419         0.717560         2.925724
 H        -3.554353         1.261111         2.895336
 H        -1.533146        -0.933234         2.174107
 H        -2.647945        -0.490298         0.932415
