19
Iteration:  3958
 O         0.174523        -0.058230         0.364011
 C        -0.894204         0.684591         0.951152
 C        -1.633482         1.857523         0.260432
 C        -2.634235         2.302330         1.316856
 O        -1.967817         3.219268         2.299384
 C        -1.532273         2.079578         2.937590
 C        -0.193759         1.475050         2.242981
 C        -2.550885         1.116373         2.326397
 C        -1.940728        -0.054854         1.619832
 H        -0.190355        -0.607727        -0.367521
 H        -0.729677         2.479565        -0.037959
 H        -2.119182         1.466767        -0.670848
 H        -3.629570         2.724480         0.938835
 H        -1.432994         2.288090         3.969195
 H         0.260412         2.364123         1.748056
 H         0.399712         0.759550         2.886886
 H        -3.515350         1.059581         2.906183
 H        -1.522098        -0.810230         2.305177
 H        -2.696226        -0.544655         0.979695
