19
Iteration:  3070charge 0 multiplicity 1
 O        -0.026609        -0.133789         0.233625
 C        -0.803461         0.699307         1.104530
 C        -1.563960         1.759332         0.239016
 C        -2.632267         2.295515         1.277899
 O        -2.058712         3.244916         2.208281
 C        -1.458303         2.092182         2.910139
 C        -0.203583         1.668296         2.203583
 C        -2.533538         1.095266         2.366144
 C        -1.955381        -0.164351         1.733577
 H         0.855210         0.087446         0.509901
 H        -0.809743         2.643954         0.015179
 H        -1.958150         1.586045        -0.699320
 H        -3.551639         2.756323         0.815103
 H        -1.370483         2.273537         3.967282
 H         0.582041         2.375955         1.959931
 H         0.584210         1.116417         2.907392
 H        -3.463480         0.944976         3.030830
 H        -1.636443        -0.896345         2.549908
 H        -2.501037        -0.737250         0.976557
