19
Iteration:  3124
 O         0.125802         0.206085         0.274698
 C        -0.876450         0.683115         1.107067
 C        -1.730002         1.658566         0.254514
 C        -2.639576         2.205993         1.313701
 O        -1.824458         3.218063         2.075393
 C        -1.490709         2.126483         2.922826
 C        -0.220473         1.483181         2.322950
 C        -2.542445         1.153539         2.368092
 C        -1.988465        -0.141853         1.701465
 H         0.401930        -0.640181         0.628355
 H        -1.248928         2.375238        -0.420003
 H        -2.444656         1.206282        -0.454959
 H        -3.532290         2.627170         0.935195
 H        -1.344799         2.378160         3.960579
 H         0.316192         2.291024         1.774341
 H         0.339285         0.728553         2.941074
 H        -3.528643         1.087097         2.935763
 H        -1.795095        -0.963503         2.439725
 H        -2.547006        -0.612415         0.894465
