19
Iteration:   564charge 0 multiplicity 1
 O         0.140509         0.103516         0.262574
 C        -0.828298         0.733031         1.039271
 C        -1.560058         1.711719         0.187086
 C        -2.460482         2.404156         1.226244
 O        -1.905994         3.154036         2.218753
 C        -1.576792         1.958852         3.026919
 C        -0.240057         1.459769         2.398074
 C        -2.738939         1.128845         2.238438
 C        -2.044042        -0.068632         1.645609
 H         1.002573        -0.099124         0.670094
 H        -0.956651         2.464958        -0.410647
 H        -2.249275         1.090531        -0.372851
 H        -3.389542         2.970271         0.912581
 H        -1.636187         2.130034         4.104052
 H         0.399609         2.343771         2.271237
 H         0.220708         0.570204         2.995713
 H        -3.742253         1.136710         2.751045
 H        -1.815826        -0.740744         2.492398
 H        -2.626473        -0.635977         0.866222
