19
Iteration:  4062
 O         0.138820        -0.024948         0.305609
 C        -0.845546         0.788857         1.001670
 C        -1.692434         1.835244         0.183011
 C        -2.625343         2.295316         1.327267
 O        -1.887509         3.223782         2.211159
 C        -1.514050         1.993876         2.927279
 C        -0.167271         1.405533         2.305259
 C        -2.648019         1.131129         2.372123
 C        -2.020513        -0.065386         1.641466
 H         1.036887         0.362651         0.390539
 H        -1.263448         2.714361        -0.347387
 H        -2.149906         1.161748        -0.573057
 H        -3.489916         2.897685         1.037535
 H        -1.483069         2.080946         4.067047
 H         0.654962         2.054395         2.130301
 H         0.224294         0.603804         2.881144
 H        -3.558418         1.079937         3.035315
 H        -1.503430        -0.938194         2.214629
 H        -2.759197        -0.531846         0.923683
