19
Iteration:  2391
 O         0.066019        -0.121800         0.234864
 C        -0.743879         0.778952         1.077086
 C        -1.672270         1.724455         0.229112
 C        -2.707144         2.243536         1.242303
 O        -2.043562         3.245527         2.171998
 C        -1.488546         2.123577         2.902379
 C        -0.098891         1.511717         2.297371
 C        -2.607038         1.161363         2.362650
 C        -1.926061        -0.040367         1.751172
 H         0.995086         0.035090         0.496294
 H        -1.174019         2.435866        -0.349954
 H        -2.077086         1.029750        -0.533850
 H        -3.734442         2.608628         0.841234
 H        -1.408617         2.429483         3.903095
 H         0.697998         2.271067         2.077320
 H         0.378170         0.839992         3.102105
 H        -3.493792         1.016111         3.114717
 H        -1.671326        -0.663351         2.594738
 H        -2.380093        -0.738956         1.019389
