19
Iteration:  4032
 O         0.073050         0.138990         0.130300
 C        -0.842500         0.670477         1.087108
 C        -1.601206         1.760774         0.254459
 C        -2.563741         2.288628         1.262434
 O        -1.911017         3.224358         2.169438
 C        -1.539056         2.023899         2.957723
 C        -0.207795         1.344718         2.327574
 C        -2.663647         1.171917         2.357810
 C        -1.989262        -0.069658         1.750564
 H         0.954604         0.105558         0.527061
 H        -1.029399         2.680728        -0.161381
 H        -2.021546         1.230337        -0.553402
 H        -3.440696         2.953496         0.938580
 H        -1.539192         2.160133         4.087663
 H         0.529838         2.036979         1.914646
 H         0.272657         0.564794         3.049564
 H        -3.610722         0.982446         2.958486
 H        -1.559024        -0.844716         2.424082
 H        -2.693356        -0.686159         1.164388
