19
Iteration:  4020
 O         0.043435         0.097635         0.126278
 C        -0.847350         0.752331         1.048712
 C        -1.556065         1.764986         0.294947
 C        -2.593022         2.346531         1.271114
 O        -1.861693         3.254437         2.201499
 C        -1.527180         2.054137         2.936569
 C        -0.242531         1.446410         2.312785
 C        -2.640364         1.090946         2.356329
 C        -2.020884        -0.220310         1.739273
 H         0.746479        -0.333283         0.669791
 H        -0.713776         2.455864        -0.126734
 H        -2.115961         1.368421        -0.513712
 H        -3.625049         2.501061         0.812310
 H        -1.554714         2.341962         4.072093
 H         0.411054         2.293814         2.225821
 H         0.325923         0.687093         2.968948
 H        -3.635407         1.095652         2.939960
 H        -1.465733        -0.935813         2.427576
 H        -2.581929        -0.639777         0.880709
