19
Iteration:  2376
 O         0.125972        -0.013156         0.229109
 C        -0.764189         0.750845         1.043153
 C        -1.706555         1.703672         0.257989
 C        -2.670381         2.207819         1.280700
 O        -1.927937         3.217980         2.097242
 C        -1.459948         2.100810         2.898146
 C        -0.289028         1.505249         2.279351
 C        -2.676294         1.168135         2.371704
 C        -1.837072        -0.004550         1.816158
 H         0.694751        -0.500132         0.844594
 H        -1.295766         2.628898        -0.312092
 H        -2.302112         1.096770        -0.406667
 H        -3.562916         2.594617         0.842777
 H        -1.341328         2.257793         4.047027
 H         0.420722         2.427425         2.029372
 H         0.075355         0.664972         2.900177
 H        -3.584836         0.997289         2.869210
 H        -1.320886        -0.735325         2.522749
 H        -2.535863        -0.606869         1.191531
