19
Iteration:   843charge 0 multiplicity 1
 O         0.095444        -0.006717         0.266327
 C        -0.802623         0.691319         1.040048
 C        -1.589720         1.828678         0.212604
 C        -2.574582         2.320372         1.190110
 O        -1.980989         3.236291         2.226499
 C        -1.598117         1.991759         2.952693
 C        -0.249695         1.459892         2.294819
 C        -2.658377         1.102707         2.250317
 C        -1.918304        -0.047514         1.820205
 H         0.945043        -0.261988         0.647267
 H        -0.906025         2.604343        -0.040933
 H        -1.981398         1.353558        -0.634345
 H        -3.472898         2.804123         0.764314
 H        -1.414269         2.293550         4.006191
 H         0.440792         2.272534         1.956001
 H         0.394015         0.779970         2.915343
 H        -3.688158         0.905031         2.566792
 H        -1.464893        -0.543695         2.690653
 H        -2.421953        -0.764739         1.236114
