19
Iteration:  1849charge 0 multiplicity 1
 O         0.178979         0.031504         0.202206
 C        -0.785202         0.693473         1.077147
 C        -1.650130         1.658447         0.329191
 C        -2.658375         2.272353         1.218286
 O        -1.992262         3.204670         2.058212
 C        -1.493506         2.115312         2.903531
 C        -0.242128         1.447873         2.232884
 C        -2.687083         1.148004         2.346986
 C        -1.935177        -0.090671         1.972216
 H         1.005597         0.572480         0.205786
 H        -1.047024         2.496506        -0.064693
 H        -2.136289         1.259322        -0.613385
 H        -3.552751         2.749381         0.908698
 H        -1.413138         2.516602         3.939535
 H         0.328341         2.416316         1.905702
 H         0.466276         0.712803         2.750777
 H        -3.641348         1.165073         3.015838
 H        -1.526008        -0.702481         2.751913
 H        -2.483303        -0.627634         1.189781
