19
Iteration:  4994charge 0 multiplicity 1
 O         0.168210         0.071579         0.214168
 C        -0.808772         0.703095         1.029819
 C        -1.598982         1.792539         0.260544
 C        -2.568817         2.258894         1.301654
 O        -2.014294         3.179138         2.232416
 C        -1.465528         2.069847         2.951950
 C        -0.245394         1.426619         2.293798
 C        -2.566567         1.213149         2.368766
 C        -1.979673        -0.062669         1.696951
 H        -0.356412        -0.592952        -0.306948
 H        -1.064532         2.654311        -0.084261
 H        -2.082912         1.285709        -0.635478
 H        -3.492969         2.334929         0.845898
 H        -1.472855         2.232664         4.051770
 H         0.506413         2.207393         2.012040
 H         0.123575         0.614560         3.009528
 H        -3.606525         1.062835         2.812492
 H        -1.708268        -0.945919         2.326464
 H        -2.920656        -0.393042         1.109625
