19
Iteration:   602
 O         0.184842        -0.069565         0.314847
 C        -0.814428         0.750592         1.016740
 C        -1.468137         1.922064         0.190035
 C        -2.584361         2.312773         1.298041
 O        -2.064781         3.219941         2.232713
 C        -1.536444         1.981728         2.981420
 C        -0.242467         1.455831         2.296057
 C        -2.661522         1.127112         2.314010
 C        -2.025050        -0.050487         1.609598
 H        -0.015390        -0.948099         0.642644
 H        -0.684093         2.701145         0.175085
 H        -1.734259         1.819823        -0.912985
 H        -3.458827         2.612133         0.743418
 H        -1.454690         2.346139         4.038454
 H         0.590543         2.163545         2.162269
 H         0.224487         0.713716         2.886656
 H        -3.599803         0.948148         2.788916
 H        -1.650700        -0.759500         2.391126
 H        -2.579159        -0.713240         0.977103
