19
Iteration:  1092
 O         0.218914         0.087150         0.417239
 C        -0.852798         0.734038         1.060594
 C        -1.550235         1.692804         0.184986
 C        -2.638326         2.235828         1.297885
 O        -1.956191         3.182652         2.105926
 C        -1.484538         2.097951         2.961741
 C        -0.260155         1.489255         2.349380
 C        -2.583535         1.146599         2.366054
 C        -2.044516        -0.047233         1.642476
 H        -0.111837         0.067530        -0.512088
 H        -0.944566         2.353568        -0.396304
 H        -2.079262         1.106602        -0.564075
 H        -3.612307         2.423098         0.910139
 H        -1.547649         2.347675         4.003248
 H         0.566524         2.103644         1.956015
 H         0.205218         0.682609         3.052855
 H        -3.509336         1.005351         2.890191
 H        -1.774701        -0.955975         2.206260
 H        -2.845030        -0.354144         0.860289
