19
Iteration:  3900
 O         0.106473         0.023228         0.238245
 C        -0.856997         0.787722         1.030056
 C        -1.737951         1.735862         0.233860
 C        -2.557861         2.284603         1.353836
 O        -1.862807         3.319295         2.093660
 C        -1.519099         2.011894         2.937175
 C        -0.308856         1.372020         2.383003
 C        -2.644767         1.069070         2.359066
 C        -1.874739        -0.104451         1.701898
 H         0.749463         0.621561        -0.186256
 H        -1.047166         2.452734        -0.324523
 H        -2.238623         1.191168        -0.520061
 H        -3.515490         2.838176         1.172246
 H        -1.389427         2.384787         3.984824
 H         0.530341         2.064940         2.313086
 H         0.133184         0.627073         3.205746
 H        -3.568094         1.084879         2.938739
 H        -1.538813        -0.828498         2.354699
 H        -2.439045        -0.517101         0.886051
