19
Iteration:   863
 O         0.109440        -0.058796         0.260547
 C        -0.745275         0.729688         1.047648
 C        -1.492463         1.730520         0.205247
 C        -2.556429         2.309552         1.205778
 O        -2.092413         3.206341         2.323226
 C        -1.533014         2.043026         2.963520
 C        -0.253717         1.615216         2.253185
 C        -2.647499         1.165593         2.320237
 C        -1.988229        -0.080269         1.672351
 H         0.469769        -0.757536         0.875588
 H        -0.680500         2.338965        -0.354236
 H        -2.150179         1.166190        -0.631627
 H        -3.445216         2.692515         0.735888
 H        -1.491326         2.054653         4.096423
 H         0.431979         2.472045         1.901891
 H         0.450346         1.022934         2.919510
 H        -3.531201         1.282436         2.947830
 H        -1.597755        -0.840618         2.405349
 H        -2.561989        -0.666232         0.873284
