19
Iteration:  1241
 O         0.151591        -0.078652         0.393048
 C        -0.801745         0.744902         1.106522
 C        -1.610794         1.749597         0.200202
 C        -2.648644         2.290096         1.235983
 O        -1.971672         3.199345         2.127669
 C        -1.546103         2.013691         2.931990
 C        -0.172285         1.559145         2.421010
 C        -2.631889         1.108420         2.291906
 C        -1.943829        -0.037379         1.652043
 H        -0.024473         0.104759        -0.549217
 H        -0.957311         2.634408        -0.224318
 H        -2.270349         1.112162        -0.556190
 H        -3.546113         2.830267         0.769719
 H        -1.328300         2.268932         3.979160
 H         0.188391         2.528784         2.063841
 H         0.511184         1.118640         3.024551
 H        -3.361598         0.791346         2.979576
 H        -1.743646        -0.790097         2.444836
 H        -2.507179        -0.396524         0.792994
