19
Iteration:   675charge 0 multiplicity 1
 O         0.167342         0.073295         0.399151
 C        -0.892168         0.725924         1.013861
 C        -1.612351         1.719389         0.108475
 C        -2.569910         2.351321         1.210026
 O        -1.823585         3.211633         2.199677
 C        -1.510182         1.920600         3.036532
 C        -0.333978         1.430465         2.343630
 C        -2.743814         1.144356         2.259600
 C        -1.950914        -0.052736         1.704199
 H         0.788314         0.728434         0.007181
 H        -0.865191         2.460813        -0.355121
 H        -2.199225         1.248034        -0.676235
 H        -3.500880         2.814939         0.888098
 H        -1.591392         2.057246         4.108903
 H         0.366940         2.303343         2.347916
 H         0.291650         0.585945         2.826905
 H        -3.704629         1.106868         2.802404
 H        -1.604708        -0.736932         2.449693
 H        -2.546241        -0.718983         1.031625
