19
Iteration:  4681charge 0 multiplicity 1
 O         0.072442         0.189750         0.151139
 C        -0.868120         0.716092         1.109750
 C        -1.607032         1.740184         0.218935
 C        -2.548173         2.277168         1.299619
 O        -1.952405         3.151683         2.146604
 C        -1.466891         2.042177         2.958276
 C        -0.210309         1.465802         2.327473
 C        -2.677014         1.136212         2.312413
 C        -1.913334        -0.112840         1.760253
 H         0.284351        -0.654783         0.572511
 H        -1.039760         2.651417        -0.156374
 H        -2.152788         1.168253        -0.556852
 H        -3.587408         2.635481         0.901535
 H        -1.267997         2.215627         3.985401
 H         0.568371         2.117095         2.012576
 H         0.272239         0.644719         2.989465
 H        -3.596940         1.224636         2.908262
 H        -1.624848        -0.670161         2.662137
 H        -2.711677        -0.683081         1.193220
