19
Iteration:  2969charge 0 multiplicity 1
 O         0.159649         0.110820         0.287435
 C        -0.825150         0.735099         1.074906
 C        -1.616412         1.762482         0.248853
 C        -2.636176         2.270783         1.277054
 O        -1.997719         3.213071         2.115248
 C        -1.429003         2.043891         2.935118
 C        -0.176672         1.446213         2.272200
 C        -2.615522         1.165326         2.361970
 C        -2.035086        -0.123296         1.755686
 H        -0.109325        -0.817062         0.069879
 H        -1.108017         2.511903        -0.261434
 H        -2.232559         1.130924        -0.407863
 H        -3.491156         2.603321         0.829925
 H        -1.345078         2.353442         3.960075
 H         0.582198         2.266703         1.974977
 H         0.357499         0.676468         2.959471
 H        -3.418102         1.088633         3.092439
 H        -1.744195        -0.821660         2.505631
 H        -2.498553        -0.490461         0.849121
