19
Iteration:   721
 O         0.133330        -0.045044         0.219067
 C        -0.751014         0.769727         1.109226
 C        -1.482313         1.749947         0.264160
 C        -2.599744         2.274991         1.254501
 O        -2.089928         3.244036         2.176481
 C        -1.538405         2.108490         2.995826
 C        -0.230417         1.432209         2.366461
 C        -2.608219         1.168151         2.359620
 C        -1.996987        -0.069640         1.531336
 H         0.312470        -0.902485         0.700813
 H        -0.999232         2.723264        -0.030163
 H        -1.880862         1.232415        -0.665289
 H        -3.544656         2.622870         0.885828
 H        -1.395910         2.334338         4.080502
 H         0.493754         2.285579         2.148580
 H         0.249001         0.870627         3.216314
 H        -3.514996         1.096742         2.945308
 H        -1.759186        -0.899442         2.187775
 H        -2.598627        -0.468465         0.747932
