19
Iteration:  2670
 O         0.247489        -0.144797         0.309505
 C        -0.776077         0.698706         1.039839
 C        -1.606086         1.850644         0.229643
 C        -2.696973         2.318551         1.280299
 O        -2.053304         3.269679         2.279377
 C        -1.479586         2.079435         2.931043
 C        -0.159231         1.493472         2.222991
 C        -2.664531         1.161073         2.307526
 C        -1.994455        -0.073818         1.686989
 H        -0.191776        -0.896485        -0.157389
 H        -0.845946         2.626334        -0.053339
 H        -2.057520         1.463769        -0.683500
 H        -3.688652         2.548910         0.928743
 H        -1.417254         2.162438         4.073661
 H         0.689634         2.186716         1.946575
 H         0.485296         0.908822         3.019098
 H        -3.618069         1.229057         2.868130
 H        -1.670659        -0.820493         2.453085
 H        -2.692915        -0.459585         0.931917
