19
Iteration:  4369charge 0 multiplicity 1
 O         0.000105        -0.181511         0.182473
 C        -0.796704         0.744678         1.081465
 C        -1.562486         1.854106         0.281358
 C        -2.646145         2.261830         1.293604
 O        -2.034461         3.229101         2.251650
 C        -1.443076         2.070937         2.973211
 C        -0.235237         1.569723         2.253384
 C        -2.657645         1.079873         2.331749
 C        -1.861084        -0.061519         1.669971
 H         0.865002         0.205030        -0.101370
 H        -0.976386         2.817045         0.069168
 H        -1.871253         1.360034        -0.601947
 H        -3.442937         2.648669         0.722401
 H        -1.566576         2.185381         4.084555
 H         0.480429         2.478093         1.998553
 H         0.533868         0.959000         2.926383
 H        -3.453575         0.979859         3.026824
 H        -1.501168        -0.777485         2.414970
 H        -2.527656        -0.578775         1.022710
