19
Iteration:    56charge 0 multiplicity 1
 O         0.224727         0.040094         0.412810
 C        -0.783266         0.689061         1.098850
 C        -1.483687         1.825353         0.234550
 C        -2.500926         2.308973         1.240255
 O        -1.956656         3.204809         2.250795
 C        -1.536365         2.014317         3.052904
 C        -0.239772         1.363341         2.413708
 C        -2.739167         1.166774         2.229396
 C        -2.161352        -0.088193         1.456387
 H        -0.057383         0.244650        -0.486814
 H        -0.846845         2.593308        -0.084111
 H        -1.972228         1.320209        -0.657514
 H        -3.376287         2.791339         0.859714
 H        -1.438707         2.217675         4.117236
 H         0.362084         2.154504         2.005406
 H         0.484293         0.899547         3.021150
 H        -3.760434         0.963217         2.435519
 H        -2.019764        -0.998044         2.026583
 H        -2.749935        -0.181676         0.573390
