19
Iteration:  1204
 O         0.276438         0.137506         0.411244
 C        -0.806628         0.667256         1.037186
 C        -1.655470         1.715590         0.160087
 C        -2.658942         2.353392         1.219850
 O        -1.960275         3.224914         2.133047
 C        -1.462244         2.016075         2.898935
 C        -0.283177         1.346396         2.314780
 C        -2.656391         1.171819         2.321782
 C        -1.989391        -0.085487         1.794330
 H         0.141581         0.136379        -0.543545
 H        -0.960414         2.489310        -0.226638
 H        -2.230109         1.284233        -0.682003
 H        -3.554706         2.761209         0.778558
 H        -1.376694         2.278725         3.990371
 H         0.455165         2.139825         2.089909
 H         0.199519         0.596043         3.088221
 H        -3.625646         0.938463         2.929654
 H        -1.576901        -0.618471         2.692517
 H        -2.803560        -0.739301         1.338390
