19
Iteration:  4054charge 0 multiplicity 1
 O         0.146800        -0.002310         0.238200
 C        -0.809471         0.828713         1.015226
 C        -1.667495         1.767886         0.204410
 C        -2.670267         2.309901         1.260489
 O        -1.890666         3.160242         2.232511
 C        -1.435262         1.991426         2.916771
 C        -0.189103         1.393093         2.325521
 C        -2.661846         1.196980         2.327387
 C        -2.062786        -0.042141         1.721507
 H         0.974273         0.452283         0.524367
 H        -1.089014         2.665355        -0.300413
 H        -2.228531         1.296134        -0.537416
 H        -3.755178         2.714114         1.150365
 H        -1.370408         2.195413         4.044338
 H         0.598961         2.146842         2.345860
 H         0.060634         0.397635         2.858036
 H        -3.566779         1.093364         3.003420
 H        -1.596915        -0.910940         2.302414
 H        -2.596767        -0.645795         0.942151
