19
Iteration:   325charge 0 multiplicity 1
 O         0.141826        -0.037796         0.254502
 C        -0.792055         0.774940         1.034245
 C        -1.499535         1.944363         0.230625
 C        -2.604404         2.349293         1.203088
 O        -2.037164         3.156833         2.223730
 C        -1.536841         2.059239         2.958943
 C        -0.222534         1.403991         2.327681
 C        -2.657508         1.103962         2.334329
 C        -1.996281        -0.133272         1.682397
 H         0.520911        -0.622357         0.967064
 H        -0.790980         2.843776         0.101129
 H        -1.727563         1.663429        -0.787225
 H        -3.560999         2.685032         0.784004
 H        -1.297276         2.353165         3.979402
 H         0.474329         2.223641         2.120562
 H        -0.074927         0.651762         3.101961
 H        -3.590662         1.084768         2.856081
 H        -1.822019        -1.003148         2.332964
 H        -2.525346        -0.533375         0.757825
