19
Iteration:  3541
 O         0.185569         0.051225         0.222849
 C        -0.851414         0.743513         1.001748
 C        -1.692642         1.688558         0.205923
 C        -2.570485         2.291081         1.288426
 O        -1.989866         3.231828         2.203710
 C        -1.498000         2.053428         2.985183
 C        -0.258492         1.409980         2.238387
 C        -2.605321         1.234947         2.351451
 C        -1.966053        -0.025048         1.782925
 H         0.783704        -0.634874         0.587647
 H        -0.978361         2.416913        -0.313396
 H        -2.240911         1.048790        -0.439250
 H        -3.589531         2.567289         0.901424
 H        -1.288294         2.168779         4.028497
 H         0.489581         2.218180         2.097557
 H         0.425684         0.632256         2.762641
 H        -3.499750         0.968842         2.910230
 H        -1.633585        -0.910061         2.453679
 H        -2.720377        -0.469134         1.059082
