19
Iteration:   591
 O         0.141108        -0.038165         0.310488
 C        -0.785123         0.726263         1.013838
 C        -1.503246         1.804335         0.218170
 C        -2.629485         2.355209         1.256786
 O        -1.985381         3.250325         2.294175
 C        -1.580985         2.019652         2.971143
 C        -0.171966         1.455260         2.338068
 C        -2.691929         1.121507         2.224768
 C        -1.956388        -0.056834         1.595934
 H         0.328016        -0.886581         0.747246
 H        -0.981208         2.739345        -0.001077
 H        -1.872243         1.268094        -0.743019
 H        -3.556900         2.832894         0.966019
 H        -1.807553         2.000691         4.070490
 H         0.463697         2.318638         2.097108
 H         0.244676         0.674726         2.895519
 H        -3.586256         0.989856         2.800089
 H        -1.714131        -0.796318         2.393436
 H        -2.604479        -0.353841         0.799490
