19
Iteration:  4682charge 0 multiplicity 1
 O         0.066908         0.192948         0.158860
 C        -0.869170         0.714403         1.119776
 C        -1.616062         1.733819         0.210218
 C        -2.547492         2.277565         1.297970
 O        -1.954025         3.147106         2.147598
 C        -1.467160         2.040467         2.956199
 C        -0.210909         1.462525         2.326835
 C        -2.671364         1.147785         2.316985
 C        -1.904103        -0.110822         1.755729
 H         0.322087        -0.645770         0.573097
 H        -1.059743         2.687175        -0.165474
 H        -2.171816         1.189101        -0.578842
 H        -3.568330         2.629430         0.909226
 H        -1.259157         2.203796         3.991747
 H         0.602500         2.112311         1.981479
 H         0.215417         0.600058         3.016285
 H        -3.586592         1.256466         2.875478
 H        -1.610496        -0.685588         2.634715
 H        -2.681730        -0.687178         1.171684
