19
Iteration:   177charge 0 multiplicity 1
 O         0.242751        -0.001338         0.458953
 C        -0.836953         0.803636         1.038352
 C        -1.564328         1.869072         0.210558
 C        -2.618749         2.307335         1.252293
 O        -1.935559         3.180979         2.172379
 C        -1.566411         1.936517         3.008518
 C        -0.244207         1.324050         2.318658
 C        -2.728402         1.190576         2.291837
 C        -1.957105         0.016554         1.602481
 H         0.219319        -0.020539        -0.519550
 H        -1.073249         2.706461        -0.199025
 H        -2.018190         1.318652        -0.706419
 H        -3.519393         2.766539         0.830432
 H        -1.602918         2.223572         4.084451
 H         0.712219         1.810078         2.237677
 H         0.100118         0.428493         2.760253
 H        -3.769042         1.048873         2.725860
 H        -1.623599        -0.789754         2.290536
 H        -2.568024        -0.454978         0.858619
