19
Iteration:  2247charge 0 multiplicity 1
 O         0.215457         0.099079         0.314769
 C        -0.867005         0.705774         1.003342
 C        -1.717014         1.579416         0.188760
 C        -2.660668         2.258602         1.316072
 O        -2.039388         3.278341         2.116803
 C        -1.431163         2.151836         2.912974
 C        -0.250412         1.523707         2.190950
 C        -2.517932         1.127579         2.436376
 C        -1.929477        -0.099030         1.814510
 H         0.133198        -0.812347         0.686160
 H        -1.193574         2.365236        -0.418835
 H        -2.246979         0.962311        -0.567478
 H        -3.598102         2.570080         0.809060
 H        -1.310905         2.457676         3.935544
 H         0.541712         2.251283         1.827620
 H         0.330540         0.908320         2.868716
 H        -3.398844         0.981750         3.047789
 H        -1.326207        -0.773711         2.434418
 H        -2.690086        -0.631122         1.239008
