19
Iteration:  1201charge 0 multiplicity 1
 O         0.285138         0.144175         0.406491
 C        -0.803930         0.637704         1.035349
 C        -1.648309         1.729492         0.174426
 C        -2.676137         2.377760         1.221982
 O        -1.973963         3.215225         2.120548
 C        -1.444220         2.018625         2.904126
 C        -0.271137         1.361366         2.317600
 C        -2.654158         1.177269         2.332897
 C        -2.015685        -0.107113         1.784333
 H         0.136762         0.094604        -0.556073
 H        -0.930658         2.448414        -0.116228
 H        -2.161799         1.182021        -0.602425
 H        -3.590880         2.785693         0.813738
 H        -1.478753         2.287081         3.947958
 H         0.503594         2.105428         2.047126
 H         0.206681         0.614353         3.075405
 H        -3.557541         0.995314         2.889469
 H        -1.542874        -0.590764         2.628949
 H        -2.821240        -0.727686         1.318227
