19
Iteration:  2532
 O         0.129217        -0.181594         0.353352
 C        -0.796016         0.741591         1.023795
 C        -1.609389         1.797525         0.178747
 C        -2.592152         2.306362         1.288784
 O        -2.017680         3.225951         2.234239
 C        -1.550671         2.091690         2.942172
 C        -0.257993         1.523795         2.314639
 C        -2.553311         1.169212         2.337724
 C        -1.889770        -0.027314         1.679652
 H         0.047446         0.025777        -0.610119
 H        -1.077924         2.455267        -0.431121
 H        -2.086203         1.115625        -0.577498
 H        -3.610865         2.606712         0.836681
 H        -1.580105         2.158739         4.018838
 H         0.505065         2.274473         1.955499
 H         0.363587         0.952346         3.010260
 H        -3.550431         1.146449         2.977205
 H        -1.567837        -0.838595         2.326936
 H        -2.659638        -0.560414         1.040250
