19
Iteration:  1996charge 0 multiplicity 1
 O         0.070749        -0.043545         0.299923
 C        -0.858032         0.780788         1.098590
 C        -1.712522         1.673674         0.152647
 C        -2.690848         2.215223         1.235574
 O        -1.993839         3.163171         2.073581
 C        -1.482350         2.090410         2.946319
 C        -0.180224         1.588488         2.224156
 C        -2.546032         1.184674         2.398935
 C        -1.842000        -0.041929         1.866060
 H         0.950037         0.315034         0.468682
 H        -1.150449         2.510467        -0.296221
 H        -2.195584         1.079441        -0.618286
 H        -3.720521         2.553687         0.941130
 H        -1.525006         2.244077         4.013366
 H         0.523894         2.334381         1.794856
 H         0.281443         0.855629         3.001572
 H        -3.381660         1.046034         2.987902
 H        -1.376927        -0.719518         2.600174
 H        -2.325257        -0.748591         1.183971
