19
Iteration:   984
 O         0.092675        -0.106593         0.430855
 C        -0.825906         0.801948         0.977991
 C        -1.557419         1.895921         0.137874
 C        -2.663315         2.257734         1.268885
 O        -2.023162         3.197071         2.180280
 C        -1.520818         2.065799         2.895638
 C        -0.270442         1.448389         2.226334
 C        -2.583528         1.062797         2.379174
 C        -1.889421        -0.031905         1.714522
 H         1.011472         0.194420         0.371181
 H        -1.008291         2.838349         0.065415
 H        -2.114642         1.421723        -0.731302
 H        -3.606631         2.611171         0.881849
 H        -1.442995         2.455881         3.923722
 H         0.597093         2.056988         2.070640
 H         0.114371         0.773843         2.925759
 H        -3.437279         0.954544         3.063133
 H        -1.560992        -0.714621         2.489536
 H        -2.368524        -0.770445         1.080566
