19
Iteration:  3914charge 0 multiplicity 1
 O         0.112789         0.085977         0.231446
 C        -0.811003         0.696205         1.099922
 C        -1.669621         1.697869         0.253901
 C        -2.667949         2.349563         1.251405
 O        -1.870311         3.257106         2.102226
 C        -1.476478         2.008047         3.049798
 C        -0.226157         1.367731         2.372147
 C        -2.626218         1.197789         2.344407
 C        -1.947535        -0.096414         1.684803
 H         0.340819         0.764642        -0.435200
 H        -1.179726         2.609969        -0.262565
 H        -2.274621         1.068448        -0.455966
 H        -3.606677         2.676151         0.678068
 H        -1.560819         2.187953         4.095149
 H         0.579335         2.102753         2.161845
 H         0.178527         0.458850         2.907297
 H        -3.542073         0.848021         2.945641
 H        -1.559421        -0.815883         2.429143
 H        -2.577562        -0.753546         1.048044
