19
Iteration:  1426
 O         0.213431        -0.085232         0.434670
 C        -0.812119         0.756732         1.011951
 C        -1.626312         1.771043         0.218022
 C        -2.644389         2.287996         1.173665
 O        -2.031906         3.212334         2.252893
 C        -1.491938         2.098295         2.922432
 C        -0.235313         1.402660         2.311407
 C        -2.697853         1.226022         2.268807
 C        -1.912504        -0.097920         1.711393
 H         0.402952         0.296164        -0.451360
 H        -0.955372         2.593953        -0.218386
 H        -2.073667         1.314552        -0.603915
 H        -3.585561         2.766539         0.721344
 H        -1.330510         2.203898         4.026523
 H         0.389559         2.254511         1.850417
 H         0.354610         0.728784         3.020410
 H        -3.656709         1.224325         2.718137
 H        -1.421046        -0.643569         2.546956
 H        -2.412962        -0.833080         1.111551
