19
Iteration:  2831
 O         0.158992        -0.046536         0.159300
 C        -0.800311         0.664016         1.017625
 C        -1.617422         1.675134         0.236784
 C        -2.633170         2.254698         1.288834
 O        -1.931957         3.242219         2.221367
 C        -1.515316         2.075245         3.002923
 C        -0.253816         1.509045         2.260424
 C        -2.657560         1.201485         2.382245
 C        -1.985390        -0.032416         1.721424
 H         0.917240        -0.086748         0.773102
 H        -0.989835         2.563045        -0.188115
 H        -2.149535         1.176334        -0.572448
 H        -3.705220         2.567669         0.875124
 H        -1.334407         2.408602         4.044403
 H         0.295362         2.345240         1.953519
 H         0.398197         1.076331         2.999883
 H        -3.609665         1.127754         2.892126
 H        -1.675037        -0.864588         2.418131
 H        -2.651056        -0.332921         0.910984
