19
Iteration:  3379
 O         0.224840         0.109708         0.123341
 C        -0.806565         0.697878         1.058327
 C        -1.709168         1.725319         0.280664
 C        -2.687432         2.330563         1.276590
 O        -1.921185         3.229503         2.110418
 C        -1.476743         2.050823         2.905630
 C        -0.215832         1.299865         2.347783
 C        -2.667970         1.254992         2.367833
 C        -2.015717        -0.059145         1.834681
 H         0.840995        -0.394040         0.650606
 H        -0.964576         2.500530        -0.350849
 H        -2.169560         1.132178        -0.543686
 H        -3.652477         2.567232         0.722242
 H        -1.493711         2.149602         3.992917
 H         0.429199         2.137441         2.148228
 H         0.384548         0.725209         3.047344
 H        -3.557037         0.988872         2.954206
 H        -1.552225        -0.698890         2.587281
 H        -2.597820        -0.846677         1.308882
