19
Iteration:  4195charge 0 multiplicity 1
 O         0.147629        -0.015724         0.288146
 C        -0.849443         0.629556         0.992604
 C        -1.700477         1.795476         0.230197
 C        -2.583717         2.360564         1.305225
 O        -1.894589         3.221610         2.251417
 C        -1.593964         2.032094         3.040786
 C        -0.273451         1.452985         2.224296
 C        -2.604311         1.177496         2.334585
 C        -1.916075        -0.091550         1.618346
 H         1.033100         0.376090         0.169632
 H        -1.040085         2.577093        -0.347440
 H        -2.353583         1.354441        -0.505366
 H        -3.494801         2.895694         1.068416
 H        -1.380288         2.103476         4.164311
 H         0.355935         2.223885         1.934616
 H         0.209861         0.713626         2.794508
 H        -3.510184         1.075657         2.930315
 H        -1.504236        -0.870120         2.326834
 H        -2.535967        -0.743275         1.005508
