19
Iteration:  3419
 O         0.032504         0.048747         0.284254
 C        -0.836775         0.746893         1.079089
 C        -1.596699         1.762765         0.190075
 C        -2.618973         2.225975         1.259554
 O        -1.950673         3.195342         2.117859
 C        -1.495453         2.015360         2.980458
 C        -0.203435         1.471817         2.303054
 C        -2.552042         1.111464         2.399082
 C        -1.964588        -0.008865         1.646942
 H         0.334186        -0.645899         0.929321
 H        -1.049820         2.610361        -0.179283
 H        -2.160863         1.177699        -0.517487
 H        -3.556830         2.682035         1.059545
 H        -1.431383         2.425613         3.976663
 H         0.357570         2.359344         1.867645
 H         0.626776         0.926753         2.906799
 H        -3.408924         1.184579         3.009565
 H        -1.600573        -0.784178         2.421648
 H        -2.633099        -0.464220         0.911568
