19
Iteration:  3285
 O         0.070569         0.084357         0.186156
 C        -0.864000         0.712315         1.068552
 C        -1.581983         1.732533         0.245282
 C        -2.547305         2.188566         1.299613
 O        -1.909120         3.244827         2.131991
 C        -1.539073         2.084632         2.952184
 C        -0.238693         1.563061         2.278483
 C        -2.639675         1.094999         2.368075
 C        -1.948985        -0.105939         1.803801
 H         0.347444        -0.822939         0.485839
 H        -0.996151         2.477505        -0.086513
 H        -2.135546         1.397201        -0.693694
 H        -3.514686         2.582571         0.965377
 H        -1.353683         2.418162         4.030339
 H         0.480085         2.393073         1.923337
 H         0.436806         0.767600         2.798185
 H        -3.654544         1.109677         2.901117
 H        -1.667368        -0.946476         2.453496
 H        -2.635859        -0.596739         1.061725
