19
Iteration:   410
 O         0.162574         0.062547         0.335753
 C        -0.809590         0.768816         1.064227
 C        -1.571216         1.786962         0.280480
 C        -2.603416         2.330697         1.203706
 O        -1.836128         3.153034         2.161958
 C        -1.573987         1.982539         2.952541
 C        -0.231248         1.411304         2.451759
 C        -2.719868         1.145775         2.290409
 C        -2.058139        -0.107717         1.572557
 H         0.449896         0.816939        -0.193751
 H        -0.908136         2.646301        -0.081097
 H        -2.054462         1.292089        -0.626100
 H        -3.420725         2.832610         0.639193
 H        -1.703634         2.222082         4.014433
 H         0.678976         2.022615         2.494492
 H         0.131098         0.687591         3.224395
 H        -3.586720         0.971804         2.860265
 H        -1.752349        -0.896448         2.257661
 H        -2.670937        -0.587168         0.786345
