19
Iteration:  2475charge 0 multiplicity 1
 O         0.158943         0.048388         0.213724
 C        -0.826193         0.774044         1.004877
 C        -1.690407         1.656180         0.193307
 C        -2.604058         2.267156         1.280191
 O        -1.918740         3.243803         2.120569
 C        -1.465844         2.095365         2.989953
 C        -0.248075         1.501860         2.329676
 C        -2.678844         1.126340         2.412108
 C        -1.950629        -0.090187         1.738551
 H         0.685422        -0.466267         0.854127
 H        -0.994228         2.406320        -0.253389
 H        -2.143762         0.982907        -0.559634
 H        -3.515165         2.630880         0.819469
 H        -1.417718         2.454004         4.068460
 H         0.585115         2.245406         2.050863
 H         0.072126         0.769440         3.042528
 H        -3.662916         0.922164         2.913980
 H        -1.643169        -0.853293         2.473820
 H        -2.665982        -0.446738         0.974969
