19
Iteration:  2646
 O         0.165415        -0.002418         0.352537
 C        -0.852172         0.720109         0.999677
 C        -1.540974         1.869195         0.193604
 C        -2.606915         2.311090         1.215525
 O        -1.990033         3.187435         2.232089
 C        -1.460193         2.044426         2.952883
 C        -0.325600         1.444238         2.201039
 C        -2.667002         1.108569         2.356109
 C        -1.935987        -0.048298         1.748260
 H        -0.097769        -0.937650         0.237658
 H        -0.754002         2.630520        -0.142972
 H        -2.085966         1.509743        -0.638447
 H        -3.462394         2.890564         0.763918
 H        -1.300714         2.202443         4.038919
 H         0.457957         2.134929         1.952349
 H         0.407635         0.735782         2.750052
 H        -3.522859         0.985000         2.932064
 H        -1.525849        -0.575862         2.642896
 H        -2.683586        -0.642343         1.230278
