19
Iteration:  1169
 O         0.184168         0.017210         0.357151
 C        -0.740502         0.688105         1.037202
 C        -1.545219         1.749055         0.237529
 C        -2.628689         2.224255         1.251731
 O        -2.015445         3.224466         2.124918
 C        -1.492489         2.058602         2.949098
 C        -0.265054         1.521675         2.335270
 C        -2.641531         1.113261         2.384104
 C        -1.997775         0.014387         1.666991
 H        -0.312351        -0.658598        -0.124680
 H        -0.970888         2.590145        -0.113890
 H        -1.839421         1.225728        -0.673009
 H        -3.552563         2.619025         0.880024
 H        -1.366059         2.405477         3.969134
 H         0.408389         2.385903         2.107917
 H         0.403044         0.850591         3.127144
 H        -3.637747         0.870897         2.847324
 H        -1.773469        -0.918088         2.219464
 H        -2.745288        -0.384175         0.833632
