19
Iteration:  4388charge 0 multiplicity 1
 O         0.007252        -0.068054         0.279737
 C        -0.773434         0.798284         0.998557
 C        -1.614348         1.800564         0.116029
 C        -2.596161         2.303087         1.290120
 O        -1.982992         3.133416         2.276055
 C        -1.547204         1.992972         2.978448
 C        -0.156321         1.528489         2.217532
 C        -2.601250         1.113535         2.339898
 C        -1.941438        -0.023771         1.760304
 H         0.942768         0.171289         0.459760
 H        -0.915561         2.480744        -0.335500
 H        -2.343242         1.431503        -0.654891
 H        -3.614535         2.657309         1.106640
 H        -1.440092         2.213063         4.068059
 H         0.398220         2.549063         2.118161
 H         0.485229         0.919239         2.819718
 H        -3.589451         1.040588         2.855489
 H        -1.482453        -0.760533         2.444770
 H        -2.500555        -0.630447         0.939567
