19
Iteration:  4985charge 0 multiplicity 1
 O         0.188198         0.127190         0.273234
 C        -0.816574         0.690112         0.988570
 C        -1.631989         1.741408         0.221238
 C        -2.619926         2.233795         1.260343
 O        -1.974702         3.192342         2.240534
 C        -1.467599         2.007020         2.929530
 C        -0.243271         1.393553         2.297294
 C        -2.622135         1.231982         2.401648
 C        -1.984239        -0.017913         1.717425
 H        -0.058633        -0.410645        -0.514078
 H        -0.977714         2.591727        -0.123920
 H        -2.342132         1.335257        -0.544642
 H        -3.512182         2.765336         0.775330
 H        -1.432905         2.256010         4.007806
 H         0.663834         1.930580         2.018109
 H         0.171564         0.524179         2.913256
 H        -3.483227         1.249282         3.145498
 H        -1.661565        -0.819004         2.420676
 H        -2.576661        -0.606560         1.018542
