19
Iteration:  2318charge 0 multiplicity 1
 O         0.257381        -0.114353         0.328109
 C        -0.785227         0.698568         1.024834
 C        -1.685411         1.716034         0.198939
 C        -2.749757         2.273562         1.276894
 O        -2.035487         3.290823         2.124480
 C        -1.467299         2.147801         2.905312
 C        -0.225170         1.543483         2.270702
 C        -2.612746         1.135517         2.452817
 C        -1.882183        -0.066875         1.759028
 H        -0.054544        -0.115636        -0.615407
 H        -1.138631         2.532949        -0.325123
 H        -2.237331         1.110227        -0.603850
 H        -3.679912         2.675584         0.889498
 H        -1.450510         2.352307         4.011127
 H         0.499303         2.265437         2.019120
 H         0.352335         0.847094         2.882253
 H        -3.353564         0.801232         3.188335
 H        -1.391989        -0.701006         2.559397
 H        -2.625191        -0.684631         1.218701
