19
Iteration:   463
 O         0.105530        -0.104088         0.413093
 C        -0.824133         0.705765         1.043435
 C        -1.464083         1.953057         0.188687
 C        -2.606097         2.406019         1.262163
 O        -2.018506         3.205383         2.330418
 C        -1.561039         1.913938         2.930415
 C        -0.262654         1.390866         2.226002
 C        -2.663935         1.186692         2.144538
 C        -1.921795        -0.095260         1.688622
 H         0.705962         0.364079        -0.184069
 H        -0.829875         2.778110         0.118659
 H        -1.895412         1.621817        -0.768684
 H        -3.484888         2.779476         0.657556
 H        -1.646020         2.003290         4.024016
 H         0.441064         2.246878         2.051350
 H         0.248635         0.777018         3.051682
 H        -3.555907         1.088097         2.675758
 H        -1.708746        -0.656785         2.646605
 H        -2.453969        -0.879897         1.155256
