19
Iteration:   786
 O         0.226788        -0.006582         0.438256
 C        -0.770003         0.729244         1.027210
 C        -1.658788         1.699760         0.170454
 C        -2.589552         2.331865         1.277352
 O        -1.968133         3.238141         2.194021
 C        -1.476652         2.003143         2.951557
 C        -0.303258         1.485493         2.305363
 C        -2.634598         1.146266         2.330478
 C        -2.056998        -0.087099         1.648953
 H         0.451772         0.525237        -0.344438
 H        -1.008969         2.482577        -0.307384
 H        -2.000138         1.300428        -0.716183
 H        -3.474360         2.781408         0.872757
 H        -1.447289         2.262546         4.014007
 H         0.545634         2.229229         2.162921
 H         0.142758         0.604636         2.846946
 H        -3.541324         1.171763         2.901555
 H        -1.718470        -0.953183         2.215349
 H        -2.635382        -0.534207         0.837282
