19
Iteration:  2596
 O         0.253661         0.067114         0.234398
 C        -0.822049         0.716137         1.044802
 C        -1.640582         1.773492         0.153786
 C        -2.626840         2.293141         1.266220
 O        -1.938616         3.172934         2.138147
 C        -1.521012         2.113593         2.968527
 C        -0.247234         1.357691         2.343495
 C        -2.678685         1.209883         2.406442
 C        -1.972039        -0.076074         1.755721
 H         0.039837        -0.858128         0.097042
 H        -1.059451         2.659329        -0.092705
 H        -2.116710         1.267596        -0.756518
 H        -3.518665         2.903082         1.069766
 H        -1.461336         2.438935         4.050331
 H         0.654203         2.038527         2.186527
 H         0.090859         0.499734         2.886034
 H        -3.751253         1.121554         2.902777
 H        -1.547391        -0.742412         2.519422
 H        -2.689438        -0.536178         1.030548
