19
Iteration:  4733charge 0 multiplicity 1
 O         0.118279        -0.048887         0.327520
 C        -0.825236         0.743820         1.032376
 C        -1.658248         1.820488         0.226056
 C        -2.688981         2.262368         1.232474
 O        -1.926821         3.197733         2.290810
 C        -1.458618         2.049814         2.955746
 C        -0.202005         1.495452         2.196586
 C        -2.605435         1.110909         2.335887
 C        -1.982017        -0.085474         1.674977
 H         0.932234         0.450781         0.494109
 H        -1.039179         2.603294        -0.121299
 H        -2.112300         1.391195        -0.680627
 H        -3.670063         2.661834         0.842478
 H        -1.286205         2.156849         4.036442
 H         0.215822         2.442760         1.902833
 H         0.464130         0.777608         2.621693
 H        -3.454054         1.076850         3.081645
 H        -1.831843        -0.965308         2.331832
 H        -2.663575        -0.469524         0.877482
