19
Iteration:  3782
 O         0.189620         0.170653         0.169462
 C        -0.846681         0.687696         1.097803
 C        -1.683488         1.741361         0.236416
 C        -2.599584         2.244376         1.331079
 O        -1.824094         3.263479         2.049024
 C        -1.515102         2.091245         2.958833
 C        -0.283252         1.448007         2.314672
 C        -2.627589         1.131820         2.420615
 C        -2.035467        -0.170770         1.752848
 H         0.586364        -0.633802         0.567399
 H        -1.059846         2.569473        -0.330278
 H        -2.097973         1.201493        -0.611359
 H        -3.641557         2.657580         1.077594
 H        -1.597849         2.219324         4.024047
 H         0.457154         2.130458         2.016214
 H         0.307493         0.750148         2.835169
 H        -3.527411         0.921465         3.002201
 H        -1.721615        -0.924454         2.539365
 H        -2.879685        -0.628843         1.153577
