19
Iteration:  2416charge 0 multiplicity 1
 O         0.079513        -0.122796         0.373494
 C        -0.850156         0.717921         1.037372
 C        -1.549307         1.774771         0.262251
 C        -2.590324         2.202500         1.220818
 O        -2.061936         3.249329         2.188683
 C        -1.449150         2.098970         2.930415
 C        -0.276305         1.569208         2.166218
 C        -2.547763         1.144110         2.399589
 C        -1.939663        -0.084520         1.768357
 H         0.331870         0.448513        -0.400553
 H        -0.872238         2.594712        -0.111369
 H        -2.000188         1.384870        -0.694042
 H        -3.532318         2.462499         0.742991
 H        -1.217023         2.422922         3.966410
 H         0.283218         2.343307         1.762342
 H         0.336940         1.056552         2.916962
 H        -3.455111         1.048645         2.955050
 H        -1.577986        -0.891584         2.464331
 H        -2.578295        -0.694777         1.115770
