19
Iteration:  4129
 O         0.040617        -0.088710         0.215676
 C        -0.776153         0.749161         1.020737
 C        -1.539409         1.805410         0.266190
 C        -2.598290         2.324677         1.297450
 O        -1.984189         3.246404         2.280051
 C        -1.528671         2.072459         2.952536
 C        -0.224995         1.493656         2.319705
 C        -2.627776         1.122191         2.321104
 C        -1.901901        -0.130616         1.663267
 H         0.084853         0.341464        -0.647917
 H        -0.836912         2.715475         0.023575
 H        -1.992430         1.501636        -0.688449
 H        -3.501714         2.641997         0.763063
 H        -1.666492         2.211702         4.107214
 H         0.623402         2.024342         2.081542
 H        -0.021545         0.810422         3.100798
 H        -3.646466         1.083096         2.854908
 H        -1.527353        -0.931539         2.416866
 H        -2.478403        -0.884120         1.094127
