19
Iteration:  2691
 O         0.061079        -0.012959         0.411351
 C        -0.801662         0.767523         1.095986
 C        -1.588048         1.728643         0.250991
 C        -2.556908         2.338926         1.273924
 O        -2.008693         3.179142         2.193014
 C        -1.469316         2.048065         2.906548
 C        -0.223686         1.491932         2.252948
 C        -2.576743         1.114985         2.340957
 C        -1.977434        -0.065620         1.606753
 H        -0.388389        -0.264512        -0.410734
 H        -1.070477         2.609545        -0.240980
 H        -2.102003         1.183744        -0.508062
 H        -3.444958         2.644194         0.701425
 H        -1.365487         2.317784         4.014616
 H         0.505316         2.305624         2.076646
 H         0.427224         0.986749         3.082985
 H        -3.396538         0.981791         3.051632
 H        -1.560912        -0.882526         2.236509
 H        -2.543149        -0.353913         0.722362
