19
Iteration:  3666
 O         0.156570         0.059520         0.230786
 C        -0.858886         0.755546         1.010912
 C        -1.697330         1.737849         0.191802
 C        -2.711285         2.263297         1.274366
 O        -1.845618         3.223827         2.120070
 C        -1.498241         2.037064         2.957295
 C        -0.227635         1.435218         2.343778
 C        -2.628556         1.137090         2.433251
 C        -1.940466        -0.059722         1.748909
 H         0.802585        -0.468451         0.752020
 H        -1.284542         2.564903        -0.273961
 H        -2.228842         1.311923        -0.678620
 H        -3.578322         2.736428         0.833855
 H        -1.486564         2.359277         4.010495
 H         0.440937         2.260773         1.999512
 H         0.323139         0.633835         2.900305
 H        -3.616677         1.014806         2.970440
 H        -1.427431        -0.747813         2.402544
 H        -2.595675        -0.589558         1.066877
