19
Iteration:  3043charge 0 multiplicity 1
 O         0.089904        -0.215590         0.333840
 C        -0.751970         0.783065         1.019054
 C        -1.615913         1.759521         0.221396
 C        -2.633410         2.227213         1.309456
 O        -2.073241         3.206477         2.206953
 C        -1.449965         2.046063         2.972356
 C        -0.210206         1.551366         2.195240
 C        -2.580285         1.200354         2.404722
 C        -1.955186         0.017400         1.672519
 H         0.617372         0.427746        -0.147193
 H        -1.122386         2.619693        -0.157375
 H        -2.210325         1.229006        -0.614753
 H        -3.592856         2.559363         0.911749
 H        -1.299951         2.266805         4.068623
 H         0.518392         2.353514         1.966062
 H         0.477875         0.965739         2.736084
 H        -3.534335         1.106713         2.850638
 H        -1.523670        -0.689340         2.386489
 H        -2.665046        -0.441052         0.941111
