19
Iteration:  4095
 O         0.093598        -0.139586         0.338570
 C        -0.809030         0.770454         1.008026
 C        -1.560577         1.852299         0.197056
 C        -2.617781         2.308431         1.331154
 O        -1.986913         3.192724         2.326957
 C        -1.481141         1.973553         2.930193
 C        -0.144170         1.562656         2.200176
 C        -2.673078         1.123336         2.344902
 C        -2.025933        -0.090732         1.630060
 H         0.618934         0.350620        -0.318592
 H        -0.934794         2.760142        -0.062963
 H        -1.930762         1.319481        -0.704395
 H        -3.461389         2.735187         0.791697
 H        -1.529373         2.025985         4.083930
 H         0.477433         2.364992         1.881888
 H         0.365670         0.905011         2.850508
 H        -3.628176         1.232367         2.961894
 H        -1.602338        -0.825095         2.418753
 H        -2.771439        -0.445961         0.884050
