19
Iteration:  2937charge 0 multiplicity 1
 O         0.188136        -0.180793         0.307818
 C        -0.797951         0.753737         0.954555
 C        -1.603412         1.928855         0.116663
 C        -2.672995         2.291301         1.281832
 O        -2.049881         3.222771         2.253295
 C        -1.464065         2.045544         2.964708
 C        -0.231479         1.549520         2.199715
 C        -2.602252         1.144515         2.388738
 C        -1.893303        -0.076261         1.779795
 H        -0.264318        -0.995928         0.546321
 H        -1.132231         2.827940        -0.264917
 H        -2.283395         1.529618        -0.643946
 H        -3.539152         2.657230         0.886424
 H        -1.451917         2.227483         4.010211
 H         0.316332         2.519838         1.994031
 H         0.252671         0.733726         2.826647
 H        -3.476790         1.001070         3.009021
 H        -1.473875        -0.797209         2.479380
 H        -2.395834        -0.738965         1.071487
