19
Iteration:   203charge 0 multiplicity 1
 O         0.026889        -0.139671         0.289845
 C        -0.776725         0.694033         1.179957
 C        -1.461042         1.855639         0.197752
 C        -2.551884         2.315190         1.235281
 O        -1.946754         3.209513         2.293290
 C        -1.614936         1.935176         2.915896
 C        -0.284883         1.588610         2.407236
 C        -2.622314         1.127898         2.229001
 C        -1.948329        -0.044108         1.590224
 H         0.607768         0.502884        -0.209071
 H        -0.931687         2.719398        -0.307433
 H        -1.874086         1.355488        -0.651184
 H        -3.486066         2.825432         0.871666
 H        -1.681909         2.026751         4.008103
 H         0.341905         2.475333         2.115997
 H         0.480611         1.100689         3.111433
 H        -3.507866         0.858548         2.763680
 H        -1.992563        -0.895772         2.290422
 H        -2.545708        -0.482788         0.745190
