19
Iteration:  4831charge 0 multiplicity 1
 O         0.331995         0.120929         0.330739
 C        -0.839000         0.708922         0.954328
 C        -1.739581         1.778124         0.243810
 C        -2.645288         2.333791         1.349620
 O        -1.884928         3.194856         2.170049
 C        -1.442934         1.970485         2.962519
 C        -0.279347         1.425841         2.260788
 C        -2.675580         1.244733         2.359553
 C        -2.043481        -0.155534         1.714833
 H         0.135349        -0.516791        -0.365274
 H        -1.231881         2.558150        -0.227063
 H        -2.246332         1.282269        -0.594331
 H        -3.479215         2.810015         0.814141
 H        -1.354884         2.276414         4.023455
 H         0.382994         2.280677         2.061587
 H         0.100889         0.609485         2.907670
 H        -3.597367         0.880192         2.909328
 H        -1.677645        -0.896997         2.428212
 H        -2.618809        -0.722408         1.014504
