19
Iteration:  1711
 O         0.200628         0.115855         0.377218
 C        -0.848126         0.759801         1.011239
 C        -1.708201         1.644177         0.193306
 C        -2.706600         2.217372         1.274387
 O        -1.959903         3.264429         2.061007
 C        -1.419521         2.057664         2.952429
 C        -0.237999         1.468736         2.249266
 C        -2.561874         1.150304         2.415964
 C        -1.972416        -0.085798         1.702394
 H         0.603993        -0.393755         1.110290
 H        -1.092954         2.548595        -0.333978
 H        -2.234985         1.049913        -0.619413
 H        -3.740721         2.557779         0.919897
 H        -1.320183         2.333169         4.052433
 H         0.575329         2.165877         1.983861
 H         0.090633         0.687888         2.878117
 H        -3.541067         1.108875         2.947503
 H        -1.451962        -0.748238         2.486691
 H        -2.707638        -0.651544         1.093620
