19
Iteration:  4617charge 0 multiplicity 1
 O         0.089146        -0.062989         0.315337
 C        -0.822574         0.816029         0.975082
 C        -1.694714         1.858211         0.158411
 C        -2.629069         2.249790         1.284587
 O        -2.025812         3.196130         2.289330
 C        -1.434640         2.015433         2.925769
 C        -0.193727         1.498730         2.218117
 C        -2.610840         1.136630         2.389341
 C        -1.877639        -0.055783         1.676338
 H         0.557892        -0.528752         1.036760
 H        -0.906488         2.606621        -0.225337
 H        -1.996086         1.349128        -0.762475
 H        -3.598924         2.700608         1.047568
 H        -1.373271         2.201270         3.981763
 H         0.509484         2.238070         1.832172
 H         0.154000         0.646594         2.916217
 H        -3.395913         1.032896         3.101298
 H        -1.612551        -0.988262         2.108314
 H        -2.624258        -0.332271         0.882433
