19
Iteration:  3343charge 0 multiplicity 1
 O         0.069536        -0.105732         0.276871
 C        -0.860196         0.745673         1.076583
 C        -1.592791         1.777472         0.183534
 C        -2.659981         2.291017         1.277856
 O        -1.967632         3.217589         2.199243
 C        -1.454132         2.028500         2.957255
 C        -0.230431         1.572583         2.283141
 C        -2.575482         1.129940         2.376053
 C        -1.927189        -0.066150         1.642383
 H         0.695070        -0.453873         0.904074
 H        -0.941339         2.665124        -0.194358
 H        -2.255370         1.271340        -0.557550
 H        -3.578943         2.715211         0.940666
 H        -1.434354         2.365216         3.973591
 H         0.237896         2.472901         1.820326
 H         0.475981         0.912205         2.821921
 H        -3.452765         0.980162         2.966107
 H        -1.477256        -0.877003         2.291318
 H        -2.726387        -0.310852         0.977457
