19
Iteration:  2152charge 0 multiplicity 1
 O         0.101984        -0.194851         0.332087
 C        -0.772814         0.766195         1.044706
 C        -1.770491         1.717249         0.251081
 C        -2.728956         2.218935         1.286820
 O        -2.078176         3.249436         2.102371
 C        -1.460783         2.174859         2.858256
 C        -0.192652         1.652361         2.154771
 C        -2.576280         1.099918         2.409009
 C        -1.759505        -0.044671         1.809464
 H         1.007945        -0.211967         0.675354
 H        -1.345238         2.607124        -0.068189
 H        -2.230680         1.280312        -0.655112
 H        -3.689255         2.717777         1.077080
 H        -1.301913         2.336205         3.905640
 H         0.570960         2.260695         1.815306
 H         0.381062         0.961405         2.840207
 H        -3.350606         0.738713         3.198735
 H        -1.322326        -0.732407         2.556133
 H        -2.399153        -0.569150         1.053485
