19
Iteration:  1919charge 0 multiplicity 1
 O         0.238792        -0.091362         0.413067
 C        -0.803581         0.688194         1.049489
 C        -1.753737         1.739809         0.205321
 C        -2.698185         2.276482         1.281862
 O        -2.012667         3.209984         2.137453
 C        -1.494501         2.077391         2.919507
 C        -0.206003         1.617206         2.163323
 C        -2.569672         1.186493         2.336314
 C        -1.860551        -0.120718         1.801855
 H        -0.250533        -0.726759        -0.156002
 H        -1.087873         2.563227        -0.140275
 H        -2.231414         1.412709        -0.685258
 H        -3.664721         2.666982         0.855478
 H        -1.465932         2.308193         3.984400
 H         0.155444         2.586024         1.727302
 H         0.676972         1.277482         2.801933
 H        -3.398018         1.034312         2.937031
 H        -1.596904        -0.635653         2.769089
 H        -2.541173        -0.684517         1.135123
