19
Iteration:  1337charge 0 multiplicity 1
 O         0.267552         0.139256         0.397264
 C        -0.866259         0.725638         1.002449
 C        -1.644437         1.702755         0.164174
 C        -2.606343         2.298165         1.250458
 O        -1.869721         3.179874         2.122751
 C        -1.515609         2.075556         2.964460
 C        -0.274089         1.478703         2.378339
 C        -2.639323         1.129100         2.293682
 C        -2.032189        -0.118649         1.714852
 H         0.052916        -0.670610        -0.091739
 H        -1.027156         2.527252        -0.233095
 H        -2.088695         1.171666        -0.602285
 H        -3.616623         2.635200         0.939342
 H        -1.707781         2.235036         4.020308
 H         0.388284         2.403223         2.275896
 H         0.187928         0.566163         2.899561
 H        -3.576015         1.059117         2.858158
 H        -1.787678        -0.741522         2.583720
 H        -2.666768        -0.497770         0.935167
