19
Iteration:  3932charge 0 multiplicity 1
 O         0.164880         0.065379         0.264713
 C        -0.808127         0.775025         1.045318
 C        -1.628788         1.754313         0.200232
 C        -2.593078         2.273841         1.297737
 O        -1.921340         3.132566         2.201398
 C        -1.462412         1.980537         2.893028
 C        -0.184421         1.442933         2.313951
 C        -2.680685         1.135373         2.331918
 C        -2.082150        -0.042911         1.812217
 H         0.028885         0.477648        -0.606623
 H        -0.966694         2.599161        -0.142932
 H        -2.002104         1.225476        -0.629443
 H        -3.502589         2.735438         0.835125
 H        -1.307069         2.247665         3.992962
 H         0.429923         2.234102         1.932768
 H         0.174566         0.681990         3.111165
 H        -3.546588         1.295518         2.965964
 H        -1.745840        -0.769738         2.525049
 H        -2.606396        -0.447656         0.955344
