19
Iteration:  2811charge 0 multiplicity 1
 O         0.052394        -0.118174         0.298530
 C        -0.808914         0.760709         0.994158
 C        -1.542896         1.826842         0.181751
 C        -2.585404         2.342623         1.238008
 O        -2.120405         3.216937         2.287458
 C        -1.468038         2.040550         2.901976
 C        -0.183153         1.515474         2.183470
 C        -2.602174         1.122160         2.338377
 C        -1.986499        -0.105763         1.813018
 H         1.011854         0.101085         0.424789
 H        -0.793283         2.558402        -0.316307
 H        -2.140035         1.390307        -0.615072
 H        -3.465010         2.857913         0.638162
 H        -1.330715         2.208503         4.030524
 H         0.689824         2.113252         1.947127
 H         0.331989         0.740880         2.834414
 H        -3.320898         1.138877         3.156098
 H        -1.533372        -0.723825         2.645900
 H        -2.677843        -0.717860         1.194161
