19
Iteration:   787charge 0 multiplicity 1
 O         0.223987        -0.001730         0.437766
 C        -0.777023         0.728152         1.024427
 C        -1.650508         1.699875         0.168795
 C        -2.594511         2.318721         1.276830
 O        -1.963771         3.238972         2.196065
 C        -1.478084         2.007682         2.951288
 C        -0.305114         1.482395         2.315132
 C        -2.627860         1.155415         2.336926
 C        -2.058704        -0.089039         1.638127
 H         0.455281         0.549422        -0.318245
 H        -1.036367         2.454349        -0.331476
 H        -2.001022         1.259874        -0.723521
 H        -3.484540         2.779071         0.856731
 H        -1.454564         2.286611         4.020365
 H         0.554155         2.208296         2.148727
 H         0.151854         0.610308         2.851353
 H        -3.533309         1.174013         2.925260
 H        -1.719551        -0.962739         2.186812
 H        -2.619195        -0.513809         0.840265
