19
Iteration:  1639
 O         0.105894        -0.194695         0.417557
 C        -0.797573         0.826780         0.999635
 C        -1.620327         1.845948         0.123693
 C        -2.637927         2.251679         1.221320
 O        -2.071972         3.207989         2.103209
 C        -1.483279         2.086595         2.994948
 C        -0.235159         1.552636         2.329511
 C        -2.574282         1.123242         2.401156
 C        -1.868711        -0.060753         1.731280
 H         0.516971         0.147495        -0.415969
 H        -1.196914         2.710769        -0.189233
 H        -2.078932         1.333589        -0.754761
 H        -3.622805         2.564183         0.892590
 H        -1.481452         2.374382         4.033871
 H         0.467043         2.332929         2.128376
 H         0.219808         0.617726         2.860841
 H        -3.384045         0.886970         3.081938
 H        -1.243951        -0.662461         2.391254
 H        -2.562462        -0.753374         1.149435
