19
Iteration:  3313charge 0 multiplicity 1
 O         0.125464        -0.132762         0.248411
 C        -0.821251         0.730420         1.039385
 C        -1.578385         1.795834         0.234936
 C        -2.679670         2.307440         1.267081
 O        -2.116091         3.209925         2.304382
 C        -1.434333         2.071466         2.847542
 C        -0.144673         1.503065         2.218073
 C        -2.621837         1.162525         2.309320
 C        -1.903474         0.000965         1.769890
 H         0.483384        -0.842360         0.844132
 H        -0.947970         2.675891        -0.284002
 H        -2.152282         1.467083        -0.636940
 H        -3.621362         2.812966         0.927241
 H        -1.221091         2.335809         3.876136
 H         0.563070         2.202430         1.868092
 H         0.171705         0.707577         2.850514
 H        -3.467338         1.118848         2.957443
 H        -1.578092        -0.735058         2.510634
 H        -2.607868        -0.556402         1.130820
