19
Iteration:    31
 O         0.263512         0.149657         0.350241
 C        -0.799174         0.777347         1.018737
 C        -1.594905         1.859393         0.190732
 C        -2.565284         2.433018         1.217076
 O        -1.809674         3.143327         2.201811
 C        -1.635375         1.887599         2.907885
 C        -0.316153         1.289694         2.468168
 C        -2.750958         1.182778         2.187161
 C        -2.011690        -0.086897         1.697888
 H        -0.088495        -0.690329        -0.015875
 H        -0.794156         2.712593         0.063427
 H        -2.010392         1.489343        -0.756766
 H        -3.441281         3.012153         0.908147
 H        -1.739097         2.012613         3.989369
 H         0.566767         1.877083         2.698129
 H        -0.142311         0.385728         2.993835
 H        -3.674550         0.969522         2.739894
 H        -1.630592        -0.723878         2.501062
 H        -2.641021        -0.557672         0.917713
