19
Iteration:  4063
 O         0.135204        -0.026068         0.312331
 C        -0.844450         0.781532         1.001347
 C        -1.698448         1.837123         0.181274
 C        -2.620809         2.296441         1.333841
 O        -1.886855         3.227296         2.209467
 C        -1.516489         1.994428         2.932061
 C        -0.172537         1.406989         2.299660
 C        -2.643757         1.124031         2.375169
 C        -2.012630        -0.067041         1.630416
 H         1.034275         0.356701         0.376446
 H        -1.248407         2.738170        -0.357084
 H        -2.140036         1.180728        -0.555511
 H        -3.491768         2.907558         0.989607
 H        -1.491358         2.087753         4.082991
 H         0.638603         2.051928         2.100530
 H         0.247148         0.611220         2.905057
 H        -3.566479         1.070117         3.037590
 H        -1.501709        -0.925309         2.242233
 H        -2.772807        -0.499497         0.909377
