19
Iteration:  1830charge 0 multiplicity 1
 O         0.079665         0.048118         0.393220
 C        -0.821972         0.764216         1.075454
 C        -1.668325         1.624713         0.108306
 C        -2.663345         2.202296         1.249484
 O        -1.889113         3.169716         2.094313
 C        -1.490447         2.072924         2.919588
 C        -0.196068         1.590236         2.291821
 C        -2.583973         1.166369         2.400399
 C        -1.986764        -0.100490         1.764234
 H         0.536303         0.754193        -0.113612
 H        -1.095314         2.509121        -0.393424
 H        -2.141813         1.007403        -0.596434
 H        -3.647440         2.619413         0.911812
 H        -1.463410         2.183910         4.049975
 H         0.395715         2.505441         1.863523
 H         0.351360         0.879863         2.970128
 H        -3.436757         1.078056         3.109785
 H        -1.555172        -0.694850         2.690135
 H        -2.489061        -0.892396         1.121703
