19
Iteration:  3436
 O         0.116343        -0.116969         0.267196
 C        -0.767937         0.749200         1.018061
 C        -1.626641         1.816309         0.252616
 C        -2.680688         2.279382         1.276347
 O        -1.965188         3.172706         2.225956
 C        -1.454976         2.054500         2.928848
 C        -0.141992         1.615836         2.193038
 C        -2.686024         1.152691         2.349026
 C        -2.005247        -0.067084         1.753353
 H         0.544071        -0.806500         0.858450
 H        -0.944533         2.706751         0.009019
 H        -1.967672         1.384404        -0.737818
 H        -3.624580         2.713979         0.810875
 H        -1.294315         2.067481         4.052934
 H         0.339722         2.527540         1.875870
 H         0.259566         0.941925         2.885522
 H        -3.601219         0.908339         2.991278
 H        -1.677826        -0.839783         2.387986
 H        -2.518134        -0.424258         0.843035
