19
Iteration:  3936charge 0 multiplicity 1
 O         0.171824         0.041846         0.278855
 C        -0.793822         0.778510         1.051896
 C        -1.602947         1.763880         0.185890
 C        -2.578899         2.299746         1.320947
 O        -1.943262         3.168460         2.188360
 C        -1.433204         1.948351         2.943589
 C        -0.222726         1.460975         2.270258
 C        -2.688452         1.127210         2.343221
 C        -2.090717        -0.046503         1.814662
 H        -0.047996         0.329770        -0.626557
 H        -1.031143         2.752809        -0.064492
 H        -2.014150         1.244787        -0.732083
 H        -3.484531         2.646428         0.711033
 H        -1.309200         2.154383         3.974084
 H         0.421974         2.258642         1.836624
 H         0.185817         0.716595         3.026319
 H        -3.605515         1.232512         3.023266
 H        -1.712835        -0.878306         2.405870
 H        -2.552871        -0.529832         0.938091
