19
Iteration:  4581
 O         0.068392         0.150475         0.117868
 C        -0.832218         0.716512         1.096088
 C        -1.597832         1.698935         0.260481
 C        -2.627473         2.332247         1.255078
 O        -1.906606         3.219668         2.225875
 C        -1.489198         2.027244         2.903901
 C        -0.224046         1.424095         2.288040
 C        -2.663922         1.140554         2.326029
 C        -1.978704        -0.154586         1.846763
 H         0.886114        -0.039891         0.630499
 H        -0.879666         2.357654        -0.150737
 H        -2.174075         1.181951        -0.551425
 H        -3.542454         2.769547         0.727024
 H        -1.457547         2.140455         3.972774
 H         0.354988         2.251344         2.055811
 H         0.460398         0.852509         2.949512
 H        -3.639017         1.115397         2.894834
 H        -1.607533        -0.992871         2.428468
 H        -2.460388        -0.491779         0.948139
