19
Iteration:  3424charge 0 multiplicity 1
 O         0.050322        -0.006955         0.288908
 C        -0.816473         0.745995         1.107708
 C        -1.599884         1.780738         0.192056
 C        -2.635767         2.248472         1.290055
 O        -1.955897         3.163604         2.140069
 C        -1.478638         2.003729         2.950382
 C        -0.195398         1.523201         2.271841
 C        -2.584531         1.139841         2.383622
 C        -1.953378        -0.007126         1.666897
 H         0.427362        -0.719512         0.826646
 H        -1.036543         2.769823        -0.172481
 H        -2.137765         1.286283        -0.673030
 H        -3.623261         2.703304         0.911179
 H        -1.506313         2.387840         3.992516
 H         0.407758         2.333806         1.921453
 H         0.635020         1.047174         2.736596
 H        -3.503785         1.019883         3.043073
 H        -1.721408        -0.819988         2.330461
 H        -2.710363        -0.452656         0.991807
