19
Iteration:  4307charge 0 multiplicity 1
 O         0.235243         0.105140         0.336408
 C        -0.845681         0.751101         1.057856
 C        -1.772510         1.757640         0.267402
 C        -2.642047         2.362225         1.254373
 O        -1.817210         3.178679         2.185658
 C        -1.493005         1.975372         2.947339
 C        -0.245031         1.460213         2.278408
 C        -2.646877         1.094161         2.341622
 C        -1.955484        -0.097991         1.691488
 H        -0.239185        -0.292656        -0.439051
 H        -1.124973         2.486201        -0.293703
 H        -2.415021         1.212899        -0.498154
 H        -3.482045         3.039479         0.875181
 H        -1.579012         2.134811         4.044682
 H         0.253759         2.279853         1.941171
 H         0.414334         0.792479         2.821867
 H        -3.492343         0.903290         3.020018
 H        -1.420783        -0.918008         2.234390
 H        -2.810247        -0.526540         1.011039
