19
Iteration:   625charge 0 multiplicity 1
 O         0.148681        -0.026714         0.365467
 C        -0.821047         0.706280         1.049999
 C        -1.423715         1.928359         0.289877
 C        -2.608451         2.278876         1.229542
 O        -2.089974         3.212519         2.264842
 C        -1.546522         2.046918         2.874480
 C        -0.231191         1.390836         2.252710
 C        -2.597963         1.142364         2.319016
 C        -1.962398        -0.050465         1.656809
 H        -0.285538        -0.753075        -0.145033
 H        -0.901610         2.876022         0.192391
 H        -1.470620         1.611846        -0.798140
 H        -3.506479         2.586516         0.659144
 H        -1.693487         2.310215         3.945888
 H         0.663834         2.002345         2.088828
 H         0.136768         0.631133         2.872391
 H        -3.520138         1.121215         2.843482
 H        -1.768223        -0.928855         2.318766
 H        -2.724129        -0.463343         1.000285
