19
Iteration:  3955charge 0 multiplicity 1
 O         0.176872        -0.043504         0.359316
 C        -0.892868         0.679932         0.953876
 C        -1.609883         1.853577         0.264045
 C        -2.639060         2.280058         1.292871
 O        -1.964226         3.235673         2.272634
 C        -1.534779         2.049768         2.963866
 C        -0.191524         1.481195         2.225570
 C        -2.574534         1.141198         2.360725
 C        -1.945605        -0.083192         1.618020
 H        -0.181646        -0.477571        -0.455998
 H        -0.711981         2.477456        -0.066896
 H        -2.089160         1.476143        -0.589236
 H        -3.618475         2.766547         0.976758
 H        -1.393363         2.262910         4.052700
 H         0.242333         2.390720         1.837576
 H         0.449134         0.694022         2.820104
 H        -3.545860         1.047130         2.939642
 H        -1.583227        -0.734567         2.350182
 H        -2.733862        -0.525598         1.009193
