19
Iteration:  2773
 O         0.097984        -0.183929         0.314151
 C        -0.807114         0.751248         0.976939
 C        -1.527721         1.824499         0.223863
 C        -2.670888         2.302101         1.282432
 O        -1.946158         3.168519         2.154047
 C        -1.513615         2.038114         2.978105
 C        -0.161525         1.594885         2.306445
 C        -2.649779         1.141994         2.414482
 C        -1.971803        -0.054790         1.692037
 H         0.470116         0.362106        -0.394557
 H        -1.110950         2.693492        -0.211494
 H        -2.191083         1.328800        -0.554422
 H        -3.546039         2.657783         0.772105
 H        -1.587346         2.298069         3.989706
 H         0.372170         2.542014         2.221731
 H         0.164639         0.920191         3.016463
 H        -3.422462         0.952142         3.181633
 H        -1.682143        -0.983090         2.173225
 H        -2.690080        -0.429111         0.951359
