19
Iteration:   224
 O         0.084479        -0.113061         0.224645
 C        -0.784225         0.727466         1.051753
 C        -1.422693         1.794717         0.328783
 C        -2.532641         2.353533         1.222577
 O        -2.133956         3.207920         2.315400
 C        -1.565212         2.054960         2.971162
 C        -0.180067         1.438620         2.282821
 C        -2.721797         1.184005         2.230417
 C        -1.995081        -0.071528         1.645938
 H         1.024615        -0.024167         0.332128
 H        -0.699074         2.584497         0.063356
 H        -1.912003         1.596078        -0.615725
 H        -3.334988         2.850519         0.609123
 H        -1.393732         2.177349         4.061006
 H         0.458611         2.317154         2.225785
 H         0.501643         0.812325         2.895072
 H        -3.703298         1.142866         2.695035
 H        -1.605330        -0.731854         2.449819
 H        -2.564546        -0.747131         0.968081
