19
Iteration:   276
 O         0.203760         0.148332         0.296585
 C        -0.788260         0.772362         1.136762
 C        -1.555015         1.774597         0.215474
 C        -2.586881         2.335041         1.277034
 O        -1.847069         3.079350         2.154280
 C        -1.491069         2.043673         3.012647
 C        -0.232174         1.457064         2.394405
 C        -2.773432         1.087649         2.262509
 C        -2.128221        -0.021109         1.575875
 H         0.444030        -0.761456         0.457331
 H        -1.029025         2.303236        -0.563720
 H        -2.299163         1.063105        -0.479301
 H        -3.455234         2.891302         0.859682
 H        -1.493215         2.219483         4.136150
 H         0.396407         2.339295         2.033335
 H         0.266065         0.818881         3.251779
 H        -3.767459         0.792736         2.813693
 H        -1.838277        -0.959151         2.132171
 H        -2.689108        -0.450932         0.774954
