19
Iteration:  1794charge 0 multiplicity 1
 O         0.271676        -0.173047         0.424198
 C        -0.728344         0.693357         1.032923
 C        -1.682387         1.799941         0.197428
 C        -2.753740         2.249607         1.316608
 O        -2.101301         3.252276         2.165841
 C        -1.482908         2.134969         2.858409
 C        -0.204366         1.492743         2.217132
 C        -2.571404         1.178679         2.364287
 C        -1.931910        -0.017053         1.715150
 H         0.119744        -0.279583        -0.527977
 H        -1.247994         2.702226        -0.211704
 H        -2.220184         1.255016        -0.637053
 H        -3.718004         2.596358         1.017856
 H        -1.473353         2.342030         3.937035
 H         0.552698         2.306415         1.889156
 H         0.423498         0.878871         2.955115
 H        -3.349191         1.056910         3.208748
 H        -1.507866        -0.506534         2.572284
 H        -2.470007        -0.727378         1.062178
