19
Iteration:  4257charge 0 multiplicity 1
 O         0.106906         0.011490         0.147521
 C        -0.765332         0.663734         1.030165
 C        -1.536623         1.878396         0.219151
 C        -2.635500         2.285682         1.361315
 O        -2.032279         3.238185         2.207862
 C        -1.482394         2.055780         2.958092
 C        -0.280563         1.483525         2.245140
 C        -2.620276         1.111655         2.436858
 C        -1.934556        -0.110008         1.655976
 H         0.275363        -0.889117         0.503197
 H        -0.820492         2.633456        -0.043673
 H        -1.907750         1.383716        -0.696486
 H        -3.605533         2.666207         1.077580
 H        -1.384425         2.347378         4.007180
 H         0.602993         2.329864         2.160606
 H         0.109605         0.735344         3.054602
 H        -3.563835         1.015501         3.068733
 H        -1.574603        -0.827411         2.422310
 H        -2.691525        -0.528129         0.996444
