19
Iteration:  4201charge 0 multiplicity 1
 O         0.110624        -0.076399         0.222228
 C        -0.830108         0.692478         0.987749
 C        -1.668873         1.815091         0.227775
 C        -2.559570         2.274836         1.288959
 O        -1.906789         3.231605         2.307817
 C        -1.564747         2.066495         3.024719
 C        -0.289669         1.493251         2.226043
 C        -2.639166         1.140192         2.322865
 C        -1.917995        -0.076467         1.642248
 H         0.977154         0.354917         0.415954
 H        -1.046443         2.555205        -0.145682
 H        -2.254171         1.348453        -0.624942
 H        -3.416688         2.854300         0.878177
 H        -1.527302         2.205963         4.087663
 H         0.479780         2.420479         2.148469
 H         0.319358         0.644267         2.743862
 H        -3.508542         1.050538         3.023269
 H        -1.611654        -0.709228         2.479603
 H        -2.462080        -0.800781         0.992079
