19
Iteration:  3352charge 0 multiplicity 1
 O         0.038272         0.025847         0.283407
 C        -0.850299         0.743136         1.093107
 C        -1.630947         1.742415         0.162988
 C        -2.581298         2.303454         1.280063
 O        -1.918144         3.128784         2.192543
 C        -1.469326         2.092433         2.913606
 C        -0.273079         1.529482         2.229043
 C        -2.573961         1.141024         2.385742
 C        -1.981222        -0.066498         1.728295
 H         0.737616        -0.302880         0.834199
 H        -0.880256         2.396881        -0.107032
 H        -2.108192         1.276667        -0.739430
 H        -3.498235         2.607224         0.856603
 H        -1.452051         2.212026         4.016187
 H         0.464345         2.368759         1.992353
 H         0.445407         1.041353         2.972018
 H        -3.496406         0.856310         2.912001
 H        -1.690800        -0.959537         2.366514
 H        -2.554045        -0.511713         0.889956
