19
Iteration:  2939
 O         0.195848        -0.181182         0.305284
 C        -0.791541         0.752614         0.955204
 C        -1.625277         1.919127         0.121169
 C        -2.675502         2.290787         1.272024
 O        -2.028228         3.237848         2.260963
 C        -1.491371         2.055044         2.967812
 C        -0.244296         1.542271         2.198647
 C        -2.590769         1.140340         2.390578
 C        -1.895441        -0.089043         1.770142
 H        -0.245547        -0.998340         0.530839
 H        -1.104819         2.925221        -0.224303
 H        -2.224492         1.475488        -0.674387
 H        -3.637731         2.706918         0.870618
 H        -1.373910         2.279399         4.017724
 H         0.302517         2.419535         1.980160
 H         0.148528         0.750473         2.829949
 H        -3.441316         0.982491         3.054864
 H        -1.409156        -0.772919         2.535946
 H        -2.347912        -0.725918         1.036007
