19
Iteration:   789
 O         0.218335         0.008048         0.435430
 C        -0.800543         0.727707         1.021987
 C        -1.627474         1.702878         0.167520
 C        -2.605869         2.287937         1.273156
 O        -1.952942         3.238707         2.200352
 C        -1.485878         2.022203         2.952910
 C        -0.300449         1.471789         2.333787
 C        -2.613975         1.175970         2.350120
 C        -2.056851        -0.090462         1.615620
 H         0.483206         0.600551        -0.279054
 H        -1.079693         2.423425        -0.374453
 H        -2.047198         1.138490        -0.751293
 H        -3.517692         2.768413         0.820888
 H        -1.467794         2.327152         4.028277
 H         0.545693         2.149090         2.118703
 H         0.166804         0.639019         2.872753
 H        -3.525779         1.165599         2.982871
 H        -1.718997        -0.984227         2.151253
 H        -2.617105        -0.471405         0.812743
