19
Iteration:   296
 O         0.222045         0.200702         0.238214
 C        -0.816784         0.721423         1.064043
 C        -1.621912         1.666586         0.231235
 C        -2.531460         2.357686         1.185263
 O        -1.884854         3.214943         2.243701
 C        -1.620184         1.919708         2.982697
 C        -0.250800         1.386975         2.383917
 C        -2.693442         1.211332         2.226347
 C        -2.016821        -0.077457         1.704361
 H         0.242291        -0.749262         0.420935
 H        -1.019131         2.431639        -0.175180
 H        -2.087620         1.127746        -0.640765
 H        -3.396377         2.808836         0.706714
 H        -1.713761         1.993960         4.103500
 H         0.481142         2.217643         2.215852
 H         0.325685         0.701328         3.070719
 H        -3.649153         1.272401         2.876600
 H        -1.890182        -0.737298         2.595155
 H        -2.491836        -0.659853         0.903679
