19
Iteration:  2714
 O         0.217924        -0.013620         0.314255
 C        -0.822031         0.704788         1.016285
 C        -1.650967         1.813907         0.129475
 C        -2.666010         2.260483         1.249495
 O        -1.859211         3.178888         2.161164
 C        -1.526681         2.043638         3.012374
 C        -0.257911         1.434446         2.304154
 C        -2.669413         1.195400         2.347885
 C        -1.995296        -0.058875         1.806951
 H         0.077379         0.164052        -0.644816
 H        -1.206495         2.774353        -0.147737
 H        -2.056149         1.359366        -0.770928
 H        -3.540654         2.692631         0.859750
 H        -1.474847         2.316355         4.121101
 H         0.457689         2.304139         2.184526
 H         0.442485         0.689134         2.867784
 H        -3.561682         0.857869         2.906278
 H        -1.652537        -0.629830         2.674523
 H        -2.585954        -0.619607         1.072191
