19
Iteration:  3238charge 0 multiplicity 1
 O         0.144799         0.081107         0.262236
 C        -0.874614         0.748686         1.050329
 C        -1.706822         1.698482         0.192291
 C        -2.638911         2.264160         1.282711
 O        -1.903066         3.205377         2.162886
 C        -1.413343         2.118549         2.924190
 C        -0.296357         1.442411         2.224680
 C        -2.599766         1.154577         2.380011
 C        -1.924800        -0.111087         1.753640
 H         0.857136        -0.087033         0.876067
 H        -1.180170         2.550239        -0.395827
 H        -2.323752         1.263453        -0.536476
 H        -3.652753         2.733540         0.938812
 H        -1.296653         2.376485         4.028235
 H         0.646124         1.986565         2.071506
 H        -0.108635         0.727155         3.185532
 H        -3.561377         0.903969         2.791670
 H        -1.605027        -0.795819         2.524831
 H        -2.611938        -0.744648         1.136999
