19
Iteration:  2996
 O         0.234869         0.167353         0.250237
 C        -0.869009         0.696504         1.018926
 C        -1.658737         1.616597         0.211849
 C        -2.630603         2.217975         1.311152
 O        -1.837112         3.176770         2.090750
 C        -1.518079         2.033175         2.984763
 C        -0.241667         1.479764         2.310525
 C        -2.660642         1.202263         2.379857
 C        -2.046869        -0.046958         1.820018
 H        -0.088376        -0.219025        -0.610222
 H        -0.974131         2.533662        -0.168811
 H        -2.224375         1.162078        -0.629124
 H        -3.587349         2.716156         0.812655
 H        -1.447762         2.376131         4.054621
 H         0.497576         2.230677         2.179107
 H         0.353228         0.826820         2.951533
 H        -3.528159         0.980693         3.048724
 H        -1.679224        -0.750400         2.625506
 H        -2.597526        -0.470099         0.961269
