19
Iteration:   852
 O         0.100827        -0.033541         0.239659
 C        -0.849472         0.729164         1.063260
 C        -1.491696         1.748679         0.179236
 C        -2.510850         2.322247         1.271388
 O        -2.069156         3.192150         2.255431
 C        -1.553515         2.022665         2.985015
 C        -0.224426         1.534247         2.233094
 C        -2.680166         1.184882         2.235796
 C        -1.900333        -0.093712         1.791744
 H         0.726862        -0.461018         0.866346
 H        -0.876291         2.645315        -0.219422
 H        -2.185566         1.316371        -0.690639
 H        -3.353089         2.759535         0.775295
 H        -1.568211         2.193207         4.110527
 H         0.345972         2.499744         1.978639
 H         0.311331         0.810630         2.918144
 H        -3.647927         1.012996         2.700029
 H        -1.657585        -0.759277         2.654216
 H        -2.507510        -0.651406         0.993338
