19
Iteration:  1203
 O         0.278693         0.140744         0.410157
 C        -0.803405         0.655567         1.035559
 C        -1.653014         1.720451         0.163376
 C        -2.666630         2.364259         1.220176
 O        -1.965612         3.221596         2.128492
 C        -1.453650         2.016071         2.900215
 C        -0.280797         1.351604         2.315321
 C        -2.654901         1.173620         2.325529
 C        -1.997953        -0.092546         1.791189
 H         0.141302         0.123799        -0.544997
 H        -0.952976         2.468127        -0.182068
 H        -2.206019         1.251514        -0.650521
 H        -3.559196         2.764948         0.793152
 H        -1.413124         2.282626         3.977851
 H         0.471111         2.131631         2.074394
 H         0.210965         0.589311         3.100135
 H        -3.611970         0.951933         2.919006
 H        -1.562554        -0.604238         2.672529
 H        -2.822938        -0.739454         1.332918
