19
Iteration:  1865charge 0 multiplicity 1
 O         0.164355        -0.024924         0.169989
 C        -0.767175         0.672497         1.055734
 C        -1.618324         1.703835         0.211239
 C        -2.705634         2.228361         1.285382
 O        -2.060171         3.312955         2.133179
 C        -1.517135         2.154728         2.854118
 C        -0.196495         1.506193         2.268271
 C        -2.639801         1.189153         2.439245
 C        -1.913698        -0.151026         1.835463
 H         1.040127        -0.023130         0.594024
 H        -1.000892         2.528011        -0.245586
 H        -2.048504         1.135867        -0.593286
 H        -3.647065         2.515301         0.717722
 H        -1.379324         2.346779         3.919059
 H         0.714407         2.083642         2.103742
 H         0.003007         0.918049         3.164966
 H        -3.432872         1.037820         3.082546
 H        -1.471917        -0.608573         2.800529
 H        -2.578770        -0.900975         1.326122
