19
Iteration:  1125
 O         0.247460        -0.095230         0.391221
 C        -0.823670         0.729854         1.059677
 C        -1.515541         1.809380         0.226216
 C        -2.697409         2.407309         1.292182
 O        -2.057981         3.186833         2.243713
 C        -1.545512         2.002880         2.901090
 C        -0.231933         1.509932         2.187914
 C        -2.677353         1.183997         2.250488
 C        -1.903436        -0.034653         1.721259
 H        -0.057704        -0.889966        -0.082764
 H        -0.786954         2.531395        -0.098895
 H        -2.066550         1.334180        -0.588437
 H        -3.565444         2.724781         0.776259
 H        -1.586032         2.055081         3.977609
 H         0.378610         2.347595         1.766210
 H         0.500976         0.859097         2.901312
 H        -3.536498         0.945225         2.883483
 H        -1.448668        -0.550519         2.597397
 H        -2.551440        -0.840015         1.172875
