19
Iteration:   573
 O         0.130852         0.034732         0.247491
 C        -0.776394         0.757338         1.155240
 C        -1.608415         1.775589         0.242984
 C        -2.500238         2.399952         1.214427
 O        -1.925956         3.159774         2.271186
 C        -1.534852         1.907644         2.952874
 C        -0.290222         1.473466         2.385313
 C        -2.703379         1.160855         2.252003
 C        -1.991522        -0.046706         1.561375
 H         0.794356        -0.422601         0.812097
 H        -1.060021         2.233831        -0.542979
 H        -2.238211         1.189753        -0.404850
 H        -3.401882         2.732461         0.576123
 H        -1.503872         2.243813         3.997485
 H         0.321032         2.368551         2.187233
 H         0.231468         0.788743         3.159851
 H        -3.689214         1.121742         2.701922
 H        -1.810809        -0.706372         2.502249
 H        -2.486101        -0.514909         0.667157
