19
Iteration:  3838charge 0 multiplicity 1
 O         0.105738        -0.209837         0.191146
 C        -0.846730         0.680905         1.056440
 C        -1.650906         1.804462         0.207961
 C        -2.574858         2.347003         1.255180
 O        -2.086368         3.252842         2.316304
 C        -1.438613         2.134988         2.971122
 C        -0.255255         1.554382         2.276896
 C        -2.585345         1.150696         2.348921
 C        -1.875706        -0.109873         1.638074
 H         0.934208        -0.228049         0.683191
 H        -0.835168         2.602506         0.023471
 H        -2.120569         1.445267        -0.747461
 H        -3.537649         2.888302         0.970338
 H        -1.433595         2.237929         4.027099
 H         0.245589         2.423446         1.855166
 H         0.366888         0.908781         2.804144
 H        -3.556926         0.975373         2.961021
 H        -1.427641        -0.826464         2.407868
 H        -2.649847        -0.589070         0.964318
