19
Iteration:  2928
 O         0.116704        -0.139818         0.335509
 C        -0.807839         0.774155         0.972936
 C        -1.589631         1.867222         0.167921
 C        -2.594881         2.281757         1.319549
 O        -2.121350         3.165829         2.237617
 C        -1.434851         2.006766         2.936838
 C        -0.144820         1.585645         2.207423
 C        -2.624442         1.146144         2.345986
 C        -1.915131        -0.016874         1.749380
 H        -0.171647        -1.053809         0.463855
 H        -0.896143         2.664295        -0.350374
 H        -2.252942         1.516941        -0.622390
 H        -3.572078         2.622035         0.873589
 H        -1.456295         2.087420         3.997713
 H         0.436413         2.438152         1.959304
 H         0.647836         1.042311         2.696192
 H        -3.578428         1.078576         2.859840
 H        -1.490584        -0.750808         2.496122
 H        -2.679747        -0.517458         1.182957
