19
Iteration:   522
 O         0.169159        -0.000489         0.312511
 C        -0.825583         0.781405         1.065087
 C        -1.535611         1.875488         0.270638
 C        -2.630487         2.327168         1.310039
 O        -1.985092         3.190996         2.149439
 C        -1.506255         2.043430         2.916476
 C        -0.193134         1.310427         2.346061
 C        -2.674372         1.134331         2.301121
 C        -2.061235        -0.102318         1.613672
 H         0.991922         0.171550         0.772192
 H        -0.765125         2.745347         0.026984
 H        -1.850540         1.549721        -0.752431
 H        -3.441286         2.683435         0.679151
 H        -1.595691         2.394680         3.942415
 H         0.630932         1.990209         2.150675
 H        -0.112321         0.470082         3.046967
 H        -3.661163         0.954354         2.876106
 H        -1.666874        -0.789421         2.288165
 H        -2.784435        -0.377871         0.824910
