19
Iteration:  3963
 O         0.163882        -0.080968         0.362972
 C        -0.856035         0.712332         0.973413
 C        -1.653421         1.849929         0.224028
 C        -2.622313         2.353251         1.348272
 O        -1.993146         3.202464         2.323158
 C        -1.484333         2.089070         2.900014
 C        -0.226619         1.477774         2.246226
 C        -2.547812         1.095572         2.284995
 C        -1.951293        -0.038661         1.640818
 H        -0.201616        -0.812326        -0.180040
 H        -0.954581         2.624349        -0.016686
 H        -2.153220         1.520026        -0.719233
 H        -3.545304         2.616785         0.914290
 H        -1.466525         2.262798         4.031903
 H         0.434845         2.210602         1.756576
 H         0.341391         0.927679         2.976708
 H        -3.435261         0.987056         2.848935
 H        -1.472656        -0.895927         2.219527
 H        -2.601141        -0.571325         0.911357
