19
Iteration:   755charge 0 multiplicity 1
 O         0.130691        -0.097426         0.365976
 C        -0.704469         0.742001         1.066787
 C        -1.501723         1.857671         0.210776
 C        -2.622034         2.358220         1.207376
 O        -2.041696         3.205165         2.262101
 C        -1.551902         1.965713         2.942094
 C        -0.263602         1.498957         2.258755
 C        -2.687093         1.134211         2.237575
 C        -1.920029        -0.068149         1.725838
 H        -0.414066        -0.481530        -0.359573
 H        -0.857374         2.740555         0.105000
 H        -1.801996         1.360291        -0.773382
 H        -3.556426         2.786547         0.803481
 H        -1.645108         2.016322         4.056028
 H         0.255334         2.487197         2.021898
 H         0.420678         0.836247         2.838411
 H        -3.569531         1.258160         2.843718
 H        -1.312162        -0.447725         2.551438
 H        -2.359960        -0.864519         1.203240
