19
Iteration:  3689
 O         0.039099        -0.033029         0.227482
 C        -0.816809         0.719845         1.102394
 C        -1.585815         1.739010         0.299189
 C        -2.622113         2.292587         1.262467
 O        -2.095696         3.253114         2.259097
 C        -1.395373         2.074762         2.879119
 C        -0.176189         1.524456         2.221481
 C        -2.569266         1.126023         2.278923
 C        -1.961935        -0.094224         1.743481
 H         0.844526        -0.408632         0.601328
 H        -1.072970         2.497449        -0.178539
 H        -2.211380         1.357763        -0.541329
 H        -3.541546         2.662343         0.826695
 H        -1.373502         2.296117         3.977044
 H         0.737091         2.137702         1.943953
 H         0.114078         0.774370         3.002001
 H        -3.505050         1.246266         2.905927
 H        -1.557165        -0.790717         2.426040
 H        -2.433536        -0.599359         0.930505
