19
Iteration:  1753charge 0 multiplicity 1
 O         0.151451        -0.003154         0.229491
 C        -0.826949         0.750788         1.053038
 C        -1.569200         1.686733         0.219068
 C        -2.642256         2.206008         1.257688
 O        -1.992984         3.218246         2.123513
 C        -1.530674         2.092222         2.955518
 C        -0.232230         1.590841         2.337095
 C        -2.628390         1.170824         2.342492
 C        -1.893595        -0.076840         1.812510
 H        -0.252050        -0.892639         0.107544
 H        -0.928583         2.447051        -0.334357
 H        -1.952028         1.096178        -0.580175
 H        -3.630171         2.480107         0.846839
 H        -1.494704         2.356641         4.060008
 H         0.208867         2.584434         1.956060
 H         0.510499         1.050406         2.925063
 H        -3.534341         0.992564         2.998685
 H        -1.415721        -0.698650         2.672522
 H        -2.591932        -0.617741         1.093448
