19
Iteration:   788
 O         0.221189         0.003161         0.436814
 C        -0.787239         0.727644         1.022594
 C        -1.639742         1.701283         0.168053
 C        -2.599869         2.303920         1.275506
 O        -1.958684         3.239190         2.198236
 C        -1.481208         2.013957         2.951637
 C        -0.304143         1.477851         2.324682
 C        -2.620841         1.165436         2.343427
 C        -2.058784        -0.090267         1.626843
 H         0.465305         0.574197        -0.295916
 H        -1.061554         2.432515        -0.352676
 H        -2.018333         1.203698        -0.739373
 H        -3.500525         2.775675         0.838511
 H        -1.461414         2.308630         4.025860
 H         0.553802         2.180781         2.133911
 H         0.159847         0.622541         2.859518
 H        -3.529232         1.171952         2.953297
 H        -1.719658        -0.973282         2.165394
 H        -2.611550        -0.492146         0.833886
