19
Iteration:  3239charge 0 multiplicity 1
 O         0.137221         0.088746         0.265391
 C        -0.868586         0.752655         1.047762
 C        -1.711441         1.703571         0.190324
 C        -2.641132         2.264014         1.279194
 O        -1.902721         3.211003         2.158176
 C        -1.404104         2.115599         2.925389
 C        -0.281614         1.425023         2.228141
 C        -2.601655         1.156268         2.376000
 C        -1.920545        -0.110055         1.760385
 H         0.845356        -0.092606         0.903154
 H        -1.214110         2.493726        -0.392467
 H        -2.349362         1.258759        -0.537370
 H        -3.661882         2.701238         0.941551
 H        -1.350835         2.365013         4.046629
 H         0.654631         2.015620         2.095786
 H        -0.144144         0.731232         3.177546
 H        -3.592546         0.882599         2.770128
 H        -1.603737        -0.807359         2.518751
 H        -2.609888        -0.741164         1.130144
