19
Iteration:  3978charge 0 multiplicity 1
 O         0.149009        -0.097244         0.335139
 C        -0.759103         0.771192         1.007978
 C        -1.620622         1.895556         0.192984
 C        -2.647489         2.295566         1.289811
 O        -2.070712         3.246992         2.299019
 C        -1.427649         1.970753         2.960544
 C        -0.153141         1.501216         2.186871
 C        -2.643228         1.158552         2.350410
 C        -1.932921        -0.080657         1.614392
 H        -0.365135        -0.904968         0.384737
 H        -1.057912         2.786329        -0.319046
 H        -2.184063         1.337825        -0.513808
 H        -3.576572         2.888324         0.973068
 H        -1.165150         2.056888         4.024626
 H         0.585214         2.322604         2.131645
 H         0.117580         0.502200         2.779361
 H        -3.537833         1.011473         3.063587
 H        -1.720901        -0.744359         2.382939
 H        -2.560813        -0.512256         0.837279
