19
Iteration:   634charge 0 multiplicity 1
 O         0.163218        -0.033862         0.352538
 C        -0.776542         0.735955         1.078805
 C        -1.466462         1.858932         0.243750
 C        -2.632671         2.304037         1.248063
 O        -2.090337         3.260937         2.215970
 C        -1.536704         2.024171         2.943063
 C        -0.160067         1.405178         2.328800
 C        -2.644069         1.143688         2.273318
 C        -2.028320        -0.064500         1.629262
 H        -0.360473        -0.492515        -0.343315
 H        -0.641534         2.580934         0.319052
 H        -1.835233         1.583380        -0.797115
 H        -3.544224         2.662629         0.800961
 H        -1.384059         2.147026         4.033215
 H         0.680559         2.087532         2.046277
 H         0.160679         0.636905         3.030919
 H        -3.517940         0.892310         2.842222
 H        -1.668676        -0.792558         2.346987
 H        -2.545614        -0.541212         0.814326
