19
Iteration:  1834charge 0 multiplicity 1
 O         0.103022         0.059775         0.342857
 C        -0.854744         0.712244         1.107060
 C        -1.663149         1.672621         0.145975
 C        -2.663156         2.202508         1.233542
 O        -1.902010         3.161053         2.074450
 C        -1.486770         2.042936         2.937074
 C        -0.177472         1.572799         2.274008
 C        -2.612740         1.196252         2.397159
 C        -1.962382        -0.080177         1.805667
 H         0.593532         0.844186         0.013338
 H        -1.061783         2.453521        -0.286129
 H        -2.165437         0.969241        -0.577063
 H        -3.623838         2.554268         0.770407
 H        -1.417910         2.195054         3.997241
 H         0.332787         2.339772         1.836164
 H         0.387045         1.017056         2.982926
 H        -3.493072         1.017516         2.943857
 H        -1.575459        -0.644100         2.659929
 H        -2.574065        -0.831003         1.300910
