19
Iteration:   431charge 0 multiplicity 1
 O         0.159316        -0.011830         0.309316
 C        -0.729623         0.750936         1.063634
 C        -1.527119         1.784441         0.252477
 C        -2.585179         2.275947         1.269239
 O        -1.934085         3.214824         2.146389
 C        -1.576598         2.038687         3.006645
 C        -0.304370         1.372574         2.508585
 C        -2.653547         1.157877         2.342148
 C        -2.014946        -0.054139         1.508916
 H         0.364369         0.686287        -0.363824
 H        -1.056099         2.682805        -0.143608
 H        -1.796470         1.163585        -0.645666
 H        -3.602236         2.603440         0.951695
 H        -1.539085         2.341696         4.060718
 H         0.509609         1.955480         2.097799
 H         0.283421         0.674359         3.147796
 H        -3.585018         0.990697         2.764861
 H        -2.310260        -0.967243         1.968744
 H        -2.596817        -0.017607         0.583930
