19
Iteration:  3083
 O         0.007894        -0.054454         0.240724
 C        -0.820684         0.722567         1.044081
 C        -1.629876         1.781760         0.272240
 C        -2.639728         2.266958         1.258610
 O        -2.056197         3.225217         2.201390
 C        -1.436583         2.068421         2.892044
 C        -0.142113         1.495543         2.234539
 C        -2.607888         1.177936         2.302180
 C        -1.879773        -0.077243         1.799393
 H         0.918354        -0.191178         0.612735
 H        -0.940979         2.682222        -0.107052
 H        -2.062810         1.175919        -0.517363
 H        -3.694533         2.581648         0.848122
 H        -1.354753         2.243973         3.989344
 H         0.438364         2.311224         1.873987
 H         0.243690         0.743349         3.016251
 H        -3.504738         1.140312         2.941828
 H        -1.340150        -0.632030         2.605328
 H        -2.486244        -0.736531         1.145229
