19
Iteration:  1558
 O         0.149308         0.019611         0.396083
 C        -0.801877         0.768186         1.035923
 C        -1.682594         1.807941         0.199382
 C        -2.661204         2.293763         1.223056
 O        -1.939539         3.166096         2.046811
 C        -1.540531         2.047162         2.899258
 C        -0.117710         1.517760         2.396630
 C        -2.702893         1.102830         2.383890
 C        -1.871838        -0.083374         1.692234
 H        -0.152106        -0.891225         0.208978
 H        -1.118637         2.798782        -0.128322
 H        -2.180712         1.339058        -0.642409
 H        -3.740970         2.636571         0.977210
 H        -1.624143         2.389882         3.969371
 H         0.632572         2.392463         2.260369
 H         0.428326         0.729013         3.014397
 H        -3.614478         0.862304         2.984301
 H        -1.412534        -0.768792         2.413337
 H        -2.452197        -0.624734         1.013638
