19
Iteration:  1046
 O         0.137446        -0.001633         0.324642
 C        -0.820228         0.725877         1.080040
 C        -1.629792         1.698388         0.189606
 C        -2.555825         2.316448         1.194225
 O        -1.950174         3.196536         2.182195
 C        -1.577385         2.034415         2.966763
 C        -0.273688         1.488381         2.316168
 C        -2.653162         1.172857         2.330820
 C        -1.916101        -0.087094         1.754397
 H         0.500962         0.580370        -0.360085
 H        -1.035790         2.533819        -0.227920
 H        -2.058656         1.280204        -0.698017
 H        -3.446994         2.748340         0.652137
 H        -1.555446         2.235684         4.026957
 H         0.346310         2.415201         2.067273
 H         0.444421         0.764187         2.931355
 H        -3.529652         0.995500         2.902452
 H        -1.549998        -0.667404         2.646140
 H        -2.426510        -0.917413         1.095974
