19
Iteration:  4910
 O         0.169599        -0.099764         0.244107
 C        -0.818008         0.717486         1.070142
 C        -1.613056         1.840329         0.318233
 C        -2.625746         2.305192         1.282683
 O        -2.131640         3.283447         2.268696
 C        -1.425118         2.046496         2.874564
 C        -0.187265         1.461893         2.273453
 C        -2.562196         1.180029         2.345029
 C        -1.963324        -0.126988         1.689933
 H        -0.306621        -0.114537        -0.594663
 H        -0.801641         2.613152         0.128931
 H        -1.996197         1.530001        -0.637195
 H        -3.655154         2.539026         0.778079
 H        -1.468965         2.334601         3.920851
 H         0.643720         2.015693         1.923085
 H         0.337898         0.705718         2.853505
 H        -3.447950         0.993192         2.946373
 H        -1.438932        -0.746131         2.413153
 H        -2.565583        -0.619810         0.947087
