19
Iteration:   266charge 0 multiplicity 1
 O         0.188664         0.109814         0.333168
 C        -0.836244         0.758460         1.044945
 C        -1.597091         1.783822         0.242051
 C        -2.583582         2.283566         1.279020
 O        -1.851435         3.168870         2.146893
 C        -1.516608         2.023855         3.001666
 C        -0.254594         1.444123         2.391538
 C        -2.723921         1.078506         2.314193
 C        -2.057252        -0.042402         1.510278
 H         0.349054        -0.687215         0.870288
 H        -1.042457         2.658345        -0.101161
 H        -2.074652         1.203947        -0.646235
 H        -3.484411         2.765397         0.837815
 H        -1.550297         2.318861         4.079484
 H         0.534547         2.165539         2.107413
 H         0.319449         0.736322         3.089185
 H        -3.624632         0.940705         2.955605
 H        -1.824474        -0.864498         2.218904
 H        -2.588493        -0.368323         0.625874
