19
Iteration:  4458charge 0 multiplicity 1
 O         0.022724         0.134229         0.181520
 C        -0.832365         0.755189         1.099769
 C        -1.591181         1.787786         0.237706
 C        -2.620573         2.240584         1.285375
 O        -1.951019         3.141615         2.156685
 C        -1.496968         2.001087         2.868576
 C        -0.216813         1.473064         2.352987
 C        -2.628781         1.154398         2.372979
 C        -1.895191        -0.045115         1.737815
 H         0.472021        -0.639175         0.594071
 H        -0.906763         2.563435        -0.212018
 H        -1.968220         1.157122        -0.551945
 H        -3.541791         2.704817         0.961094
 H        -1.512842         2.266014         3.960812
 H         0.602806         2.220167         2.043599
 H         0.249617         0.583156         2.941965
 H        -3.463753         0.970113         3.035325
 H        -1.614516        -0.832313         2.455786
 H        -2.513074        -0.520817         1.016426
