19
Iteration:  2793
 O         0.000133        -0.185049         0.363057
 C        -0.839918         0.715378         1.075942
 C        -1.601733         1.882695         0.256053
 C        -2.645832         2.280591         1.272332
 O        -2.051045         3.228244         2.243460
 C        -1.455897         2.074320         2.885440
 C        -0.197123         1.460091         2.214724
 C        -2.590310         1.174644         2.282246
 C        -1.855992        -0.033676         1.698985
 H         0.845053         0.247693         0.056431
 H        -0.987046         2.696385         0.095636
 H        -1.898962         1.528648        -0.756749
 H        -3.560187         2.590531         1.010788
 H        -1.311237         2.170867         3.960265
 H         0.448319         2.364204         1.852378
 H         0.432515         0.779665         2.854367
 H        -3.646468         0.999179         2.612528
 H        -1.397485        -0.636873         2.446176
 H        -2.307513        -0.803764         1.065494
