19
Iteration:  2483
 O         0.165967         0.035177         0.184050
 C        -0.804159         0.678422         1.090605
 C        -1.691177         1.707814         0.209245
 C        -2.633074         2.271450         1.222922
 O        -1.919362         3.209322         2.093591
 C        -1.517836         2.086285         2.983467
 C        -0.281106         1.482244         2.316599
 C        -2.619595         1.152779         2.438194
 C        -1.970175        -0.050041         1.765522
 H         0.912200        -0.152502         0.772630
 H        -1.041472         2.590874        -0.206527
 H        -2.139377         1.250211        -0.692478
 H        -3.517419         2.712441         0.850113
 H        -1.295723         2.357315         4.077630
 H         0.430601         2.270147         2.254929
 H         0.345697         0.760111         2.846031
 H        -3.508777         1.009282         2.938064
 H        -1.689116        -0.876551         2.457162
 H        -2.666121        -0.497975         1.058743
