19
Iteration:  4673
 O         0.106510         0.143615         0.120880
 C        -0.816495         0.745450         1.026077
 C        -1.578897         1.770366         0.297295
 C        -2.620478         2.260706         1.266582
 O        -1.925211         3.203443         2.167973
 C        -1.474937         2.040649         2.965716
 C        -0.217905         1.461295         2.313221
 C        -2.683808         1.094502         2.327190
 C        -2.014304        -0.115786         1.810570
 H         0.212531        -0.768600         0.417030
 H        -0.796002         2.452371        -0.204843
 H        -2.029054         1.157900        -0.505263
 H        -3.508327         2.710808         0.860979
 H        -1.470126         2.350098         4.031467
 H         0.421641         2.398534         2.074490
 H         0.559329         0.877896         2.907037
 H        -3.511679         0.882473         2.967765
 H        -1.635756        -0.665375         2.673191
 H        -2.689772        -0.745489         1.193634
