19
Iteration:   818
 O         0.155246         0.043756         0.284544
 C        -0.828527         0.746770         1.063963
 C        -1.623804         1.774665         0.243729
 C        -2.664632         2.266101         1.284501
 O        -1.911643         3.182060         2.050137
 C        -1.520114         2.020760         2.915016
 C        -0.243952         1.428993         2.426919
 C        -2.666638         1.161237         2.337232
 C        -1.988584        -0.081459         1.717544
 H         1.071504         0.380622         0.372572
 H        -1.052072         2.743606        -0.032475
 H        -1.960775         1.166657        -0.690826
 H        -3.503322         2.770321         0.863131
 H        -1.446151         2.465585         3.902838
 H         0.673307         2.088567         2.331271
 H         0.074542         0.554775         3.057661
 H        -3.556609         1.050391         2.930549
 H        -1.707685        -0.896223         2.401881
 H        -2.486653        -0.462744         0.762907
