19
Iteration:  3877
 O         0.098211        -0.056197         0.278100
 C        -0.850861         0.795151         1.014942
 C        -1.678111         1.805859         0.211017
 C        -2.702851         2.265299         1.238092
 O        -1.955760         3.157324         2.184001
 C        -1.440561         1.990331         3.035040
 C        -0.181457         1.458891         2.276092
 C        -2.595481         1.165625         2.348430
 C        -1.975460        -0.021009         1.700635
 H         0.975006         0.368827         0.441227
 H        -1.169240         2.685232        -0.188882
 H        -1.987849         1.268306        -0.652920
 H        -3.520681         2.817255         0.790154
 H        -1.376664         2.259060         4.132979
 H         0.589772         2.159904         1.917197
 H         0.430338         0.742706         2.975155
 H        -3.364164         1.061729         3.056101
 H        -1.606756        -0.734591         2.408122
 H        -2.586341        -0.492594         0.959842
