19
Iteration:  1638
 O         0.113229        -0.191593         0.420524
 C        -0.799802         0.825671         0.994634
 C        -1.621035         1.833420         0.125030
 C        -2.635392         2.237619         1.229994
 O        -2.066462         3.214549         2.102526
 C        -1.482480         2.088356         2.991861
 C        -0.233458         1.554162         2.329296
 C        -2.577143         1.121494         2.401270
 C        -1.876756        -0.059459         1.729224
 H         0.486703         0.161326        -0.423777
 H        -1.192782         2.743730        -0.157171
 H        -2.096570         1.377751        -0.780989
 H        -3.635806         2.564357         0.867837
 H        -1.528940         2.353550         4.042820
 H         0.464843         2.337246         2.112951
 H         0.254161         0.612077         2.849292
 H        -3.388314         0.918301         3.113225
 H        -1.286442        -0.658733         2.387724
 H        -2.542522        -0.714484         1.132968
