19
Iteration:   769
 O         0.256583        -0.092324         0.405892
 C        -0.858895         0.719289         1.029298
 C        -1.556415         1.893272         0.254970
 C        -2.644017         2.318376         1.230899
 O        -1.958653         3.185132         2.248877
 C        -1.596330         1.993601         2.910424
 C        -0.199350         1.461181         2.240496
 C        -2.728653         1.176804         2.241919
 C        -1.932425        -0.055069         1.751252
 H         0.224352        -0.025539        -0.561946
 H        -0.939919         2.694086        -0.169549
 H        -2.263931         1.401104        -0.588017
 H        -3.537306         2.830257         0.748025
 H        -1.508370         2.122391         4.011738
 H         0.393377         2.274140         1.854154
 H         0.426301         0.879864         2.904395
 H        -3.662631         0.872949         2.768650
 H        -1.614069        -0.600553         2.671881
 H        -2.514377        -0.744510         1.107400
