19
Iteration:   997
 O         0.126663        -0.234119         0.414078
 C        -0.783872         0.758279         1.012790
 C        -1.609444         1.940350         0.216337
 C        -2.717420         2.261167         1.272371
 O        -2.098237         3.224991         2.180402
 C        -1.483200         2.070003         2.892895
 C        -0.196010         1.504151         2.216498
 C        -2.614610         1.136876         2.360448
 C        -1.876655        -0.043900         1.685279
 H         1.019934         0.170110         0.544958
 H        -0.923896         2.764435        -0.091198
 H        -1.887849         1.618650        -0.850165
 H        -3.753520         2.619040         0.968891
 H        -1.292964         2.175471         3.994172
 H         0.539888         2.291955         2.071268
 H         0.200779         0.682981         2.861983
 H        -3.557993         0.870348         2.974548
 H        -1.326959        -0.844538         2.260404
 H        -2.534835        -0.449840         1.000307
