19
Iteration:  2705charge 0 multiplicity 1
 O         0.138845        -0.014536         0.354008
 C        -0.831020         0.773963         1.042946
 C        -1.592633         1.789116         0.174438
 C        -2.649415         2.195918         1.251641
 O        -1.886098         3.228305         2.170441
 C        -1.514196         2.001778         2.971189
 C        -0.206217         1.518371         2.313525
 C        -2.662455         1.157191         2.378051
 C        -1.965421        -0.041236         1.722631
 H        -0.076358        -0.012926        -0.610011
 H        -0.916451         2.488052        -0.225397
 H        -2.104821         1.189681        -0.648607
 H        -3.542807         2.622509         1.001354
 H        -1.493293         2.118303         4.071874
 H         0.489175         2.347411         1.975114
 H         0.177876         0.600797         2.754794
 H        -3.724206         1.154568         2.841863
 H        -1.574295        -0.844231         2.333932
 H        -2.642972        -0.541234         0.994862
