19
Iteration:  4180
 O         0.205075         0.016346         0.351469
 C        -0.865315         0.798043         1.023434
 C        -1.722306         1.770956         0.182413
 C        -2.633142         2.367468         1.319869
 O        -1.869863         3.225012         2.249969
 C        -1.399734         1.962840         2.904430
 C        -0.260339         1.380914         2.277939
 C        -2.662488         1.115383         2.316476
 C        -2.025370        -0.099578         1.671829
 H         0.670478         0.806576         0.044944
 H        -1.171901         2.475998        -0.371481
 H        -2.327353         1.108277        -0.528641
 H        -3.537973         2.814354         0.908744
 H        -1.426168         2.195598         3.947560
 H         0.536418         2.289809         2.086487
 H         0.384675         0.638315         2.878627
 H        -3.633940         0.955394         2.902070
 H        -1.729826        -0.905656         2.377709
 H        -2.725884        -0.513128         0.904789
