19
Iteration:  4730
 O         0.139800        -0.050806         0.309417
 C        -0.789010         0.733753         1.019837
 C        -1.702980         1.832517         0.241154
 C        -2.685218         2.254460         1.240346
 O        -1.918207         3.185606         2.269103
 C        -1.451592         2.070694         2.965917
 C        -0.236642         1.479814         2.193071
 C        -2.619494         1.125634         2.349952
 C        -2.007063        -0.084608         1.671448
 H         1.003574         0.378415         0.522912
 H        -0.988918         2.574978        -0.048603
 H        -2.185641         1.352672        -0.632510
 H        -3.594059         2.628261         0.906614
 H        -1.357627         2.194475         4.088417
 H         0.310369         2.496060         1.995685
 H         0.529990         0.797510         2.695115
 H        -3.477426         1.113123         3.043645
 H        -1.771561        -0.949783         2.313077
 H        -2.540549        -0.413805         0.804976
