19
Iteration:  4592
 O         0.128425         0.054092         0.152855
 C        -0.786053         0.681659         1.060702
 C        -1.644759         1.792121         0.302455
 C        -2.593020         2.275264         1.302155
 O        -1.926410         3.226604         2.181892
 C        -1.536841         2.003105         2.969651
 C        -0.170651         1.492585         2.248387
 C        -2.725786         1.172027         2.399250
 C        -1.991748        -0.119641         1.674233
 H         0.953927        -0.211538         0.581700
 H        -1.057539         2.574930        -0.113690
 H        -2.049021         1.210900        -0.560392
 H        -3.518109         2.829782         0.898542
 H        -1.547816         2.208482         4.024923
 H         0.351753         2.225407         1.747488
 H         0.417921         0.867277         2.960726
 H        -3.556428         1.089030         3.165732
 H        -1.599785        -0.792250         2.472378
 H        -2.670094        -0.773919         1.103211
