19
Iteration:  2378charge 0 multiplicity 1
 O         0.117764        -0.036547         0.223251
 C        -0.745625         0.760833         1.048467
 C        -1.694289         1.715198         0.265976
 C        -2.688912         2.192166         1.270261
 O        -1.936837         3.228069         2.112935
 C        -1.448623         2.103593         2.905236
 C        -0.279383         1.503295         2.281262
 C        -2.670564         1.167453         2.347861
 C        -1.856511         0.000910         1.815767
 H         0.798831        -0.453557         0.811918
 H        -1.369549         2.589406        -0.290103
 H        -2.325509         1.084591        -0.338353
 H        -3.631244         2.579037         0.763343
 H        -1.269801         2.269819         3.978390
 H         0.453869         2.420969         2.045139
 H         0.101645         0.677529         2.991562
 H        -3.637307         0.978635         2.919435
 H        -1.309734        -0.650150         2.505933
 H        -2.525597        -0.596332         1.132709
