19
Iteration:   308charge 0 multiplicity 1
 O         0.192958         0.119945         0.254885
 C        -0.835956         0.699149         1.033454
 C        -1.519324         1.813672         0.227970
 C        -2.558835         2.320839         1.266390
 O        -1.938179         3.260983         2.223804
 C        -1.567627         2.014787         2.956124
 C        -0.353086         1.339861         2.336345
 C        -2.685537         1.156383         2.236148
 C        -1.957192        -0.087342         1.706848
 H         0.450593        -0.792566         0.541928
 H        -0.809994         2.538922        -0.069084
 H        -2.120381         1.466665        -0.685555
 H        -3.409485         2.813977         0.781793
 H        -1.699240         2.031150         4.077267
 H         0.457477         2.088189         2.117864
 H        -0.061513         0.460636         2.979995
 H        -3.654497         0.882040         2.795717
 H        -1.339823        -0.544997         2.503084
 H        -2.583869        -0.833024         1.259183
