19
Iteration:  4080
 O         0.088955        -0.111588         0.364435
 C        -0.845912         0.727000         1.025710
 C        -1.643719         1.822177         0.253025
 C        -2.617729         2.342728         1.299249
 O        -1.908729         3.190676         2.248412
 C        -1.449888         2.028970         3.010323
 C        -0.315977         1.484527         2.238448
 C        -2.580144         1.125559         2.307203
 C        -1.958965        -0.045047         1.571786
 H         0.811674         0.495671         0.070799
 H        -0.983524         2.553831        -0.078084
 H        -2.314068         1.563510        -0.636160
 H        -3.644471         2.710864         1.106630
 H        -1.242799         2.280295         4.003787
 H         0.243195         2.469897         1.935919
 H         0.398615         0.796841         2.795474
 H        -3.425346         0.776146         2.821717
 H        -1.741638        -0.939450         2.085047
 H        -2.466139        -0.528996         0.753101
