19
Iteration:  3401
 O         0.113043         0.120630         0.195266
 C        -0.829176         0.744177         1.094993
 C        -1.678169         1.678345         0.192444
 C        -2.621571         2.265154         1.284568
 O        -1.895591         3.223845         2.142839
 C        -1.446253         2.110552         2.935404
 C        -0.260761         1.467081         2.328443
 C        -2.644933         1.171681         2.375619
 C        -1.938828        -0.121616         1.748271
 H         0.594643        -0.627229         0.639993
 H        -1.068759         2.607050        -0.344539
 H        -2.256876         1.116800        -0.583302
 H        -3.558303         2.661390         0.763902
 H        -1.429691         2.359277         4.006211
 H         0.716726         1.887745         2.357768
 H         0.012463         0.606820         2.944917
 H        -3.583775         0.964663         2.933054
 H        -1.624825        -0.950990         2.401417
 H        -2.669347        -0.627322         1.073249
