19
Iteration:  2878
 O         0.203744         0.103600         0.209043
 C        -0.838322         0.751479         1.022196
 C        -1.674056         1.726375         0.197521
 C        -2.654339         2.233797         1.249684
 O        -1.940112         3.175137         2.116195
 C        -1.465700         2.071088         3.001285
 C        -0.264077         1.380125         2.304877
 C        -2.592812         1.217517         2.406062
 C        -1.958627        -0.012982         1.777762
 H         0.149068        -0.841605         0.360956
 H        -1.201301         2.640351        -0.170161
 H        -2.232553         1.213107        -0.615348
 H        -3.611803         2.667263         0.804126
 H        -1.626142         2.330787         4.108086
 H         0.648627         2.045885         2.243022
 H         0.245651         0.529807         2.858046
 H        -3.528195         0.978112         2.961331
 H        -1.476079        -0.445077         2.657888
 H        -2.631550        -0.696866         1.193187
