19
Iteration:  1706charge 0 multiplicity 1
 O         0.204226         0.123479         0.367134
 C        -0.856799         0.731729         1.036152
 C        -1.708231         1.646084         0.174297
 C        -2.644804         2.198810         1.268457
 O        -1.955518         3.252778         2.075621
 C        -1.452345         2.063897         2.964596
 C        -0.246551         1.519760         2.188676
 C        -2.585792         1.149707         2.443179
 C        -2.001841        -0.099901         1.724483
 H         0.757168        -0.298662         1.046420
 H        -1.142876         2.443400        -0.134438
 H        -2.078995         1.157737        -0.710914
 H        -3.563970         2.526974         0.844596
 H        -1.318267         2.330888         3.997396
 H         0.598790         2.201190         1.990146
 H         0.125734         0.640382         2.836451
 H        -3.489652         1.111659         3.048408
 H        -1.574936        -0.793252         2.449496
 H        -2.763256        -0.571968         1.069370
