19
Iteration:   327
 O         0.131637        -0.054409         0.258224
 C        -0.776213         0.790659         1.050560
 C        -1.501098         1.938878         0.227346
 C        -2.607663         2.332887         1.202012
 O        -2.050861         3.155549         2.222132
 C        -1.523403         2.056383         2.958369
 C        -0.199771         1.412562         2.329362
 C        -2.647318         1.111811         2.332020
 C        -2.017520        -0.122081         1.664488
 H         0.547213        -0.595023         0.964000
 H        -0.836805         2.802142         0.160357
 H        -1.707194         1.719851        -0.766188
 H        -3.531320         2.679612         0.749730
 H        -1.362522         2.297573         4.024996
 H         0.443091         2.251983         2.093709
 H        -0.061739         0.678808         3.083568
 H        -3.601224         1.083150         2.939740
 H        -1.810804        -1.030614         2.278099
 H        -2.525083        -0.478169         0.737233
