19
Iteration:  2129charge 0 multiplicity 1
 O         0.093430        -0.004377         0.345150
 C        -0.859370         0.776653         1.045138
 C        -1.664692         1.695215         0.143934
 C        -2.682670         2.126486         1.273338
 O        -2.015848         3.186012         2.057137
 C        -1.397140         2.100730         2.932286
 C        -0.191409         1.655619         2.167636
 C        -2.578211         1.150641         2.464940
 C        -1.912251        -0.083431         1.837804
 H         0.735238        -0.367062         0.980141
 H        -1.282792         2.526786        -0.364403
 H        -2.289602         1.142172        -0.605069
 H        -3.746575         2.424625         1.067063
 H        -1.331061         2.300957         3.969865
 H         0.285549         2.470405         1.710109
 H         0.665796         1.174277         2.706908
 H        -3.378927         1.036201         3.245265
 H        -1.342589        -0.764406         2.479748
 H        -2.558743        -0.630460         1.112300
