19
Iteration:  3363
 O         0.076010         0.116858         0.244036
 C        -0.846665         0.723112         1.056939
 C        -1.609072         1.712008         0.225683
 C        -2.591305         2.235490         1.231800
 O        -1.908745         3.214346         2.148527
 C        -1.484377         2.017669         2.975363
 C        -0.186549         1.493645         2.243905
 C        -2.667781         1.142427         2.364142
 C        -2.014181        -0.098448         1.780467
 H         0.809567        -0.252128         0.777146
 H        -1.069528         2.502282        -0.173181
 H        -2.076548         1.196085        -0.654722
 H        -3.463965         2.751492         0.936971
 H        -1.305889         2.298401         4.038186
 H         0.485144         2.317630         1.856749
 H         0.176598         0.630966         2.878860
 H        -3.553152         1.226713         2.999912
 H        -1.695542        -0.782143         2.628127
 H        -2.613273        -0.614276         1.010669
