19
Iteration:  4107
 O         0.053409        -0.117743         0.292464
 C        -0.713363         0.739519         1.023017
 C        -1.512750         1.860474         0.223164
 C        -2.597912         2.336184         1.215646
 O        -2.099015         3.197402         2.321919
 C        -1.493179         1.937842         2.949016
 C        -0.145733         1.430221         2.228192
 C        -2.634633         1.170438         2.336703
 C        -2.008700         0.027696         1.722665
 H         0.352667         0.327472        -0.529133
 H        -0.876685         2.738584        -0.216468
 H        -2.180556         1.595001        -0.589716
 H        -3.536994         2.703325         0.765809
 H        -1.315360         2.103843         4.104334
 H         0.368183         2.287713         1.949632
 H         0.520460         0.871945         2.838208
 H        -3.473231         0.829023         3.041179
 H        -1.811109        -0.792728         2.552182
 H        -2.474264        -0.690749         1.005312
