19
Iteration:  2251charge 0 multiplicity 1
 O         0.222474         0.069503         0.286999
 C        -0.893073         0.676103         1.011333
 C        -1.714170         1.629871         0.220819
 C        -2.645714         2.223060         1.328663
 O        -2.043359         3.276991         2.108619
 C        -1.444855         2.157667         2.918330
 C        -0.212340         1.584148         2.190793
 C        -2.506596         1.131589         2.402216
 C        -1.932884        -0.096622         1.812212
 H         0.290543        -0.791920         0.721110
 H        -1.146595         2.327024        -0.351508
 H        -2.354669         1.022916        -0.584162
 H        -3.565183         2.581081         0.784544
 H        -1.377439         2.386625         3.989136
 H         0.441801         2.271083         1.793765
 H         0.293180         0.864399         2.878251
 H        -3.428682         0.937413         3.102878
 H        -1.559147        -0.826334         2.611771
 H        -2.687849        -0.692253         1.232154
