19
Iteration:   939
 O         0.232790         0.066950         0.260705
 C        -0.757757         0.703153         1.088345
 C        -1.630719         1.639519         0.292781
 C        -2.574098         2.294852         1.225728
 O        -1.923606         3.211154         2.168560
 C        -1.524030         2.058528         2.912857
 C        -0.256572         1.507478         2.382215
 C        -2.743453         1.192645         2.305343
 C        -2.045750        -0.103247         1.713840
 H         0.146643         0.584354        -0.550610
 H        -1.068733         2.442842        -0.243066
 H        -2.236739         0.841504        -0.281360
 H        -3.326918         2.742296         0.604754
 H        -1.428587         2.086628         4.005325
 H         0.455828         2.357910         2.213509
 H         0.369194         0.963162         3.028666
 H        -3.615465         0.950830         2.875794
 H        -1.565435        -0.803950         2.409151
 H        -2.710829        -0.846389         1.143837
