19
Iteration:  4334
 O         0.145994        -0.031748         0.253051
 C        -0.809837         0.784985         1.063893
 C        -1.563832         1.809945         0.191581
 C        -2.645140         2.228081         1.280142
 O        -2.067539         3.189273         2.234090
 C        -1.375579         2.075830         2.942154
 C        -0.264171         1.409451         2.279004
 C        -2.600801         1.138503         2.359713
 C        -1.997958        -0.039570         1.752086
 H         0.032332         0.409088        -0.621218
 H        -0.826823         2.539863        -0.105039
 H        -2.110103         1.469780        -0.681836
 H        -3.548819         2.627020         0.883287
 H        -1.473432         2.277727         4.002324
 H         0.566728         2.209646         1.998896
 H         0.108512         0.531839         2.864547
 H        -3.229803         1.136631         3.262053
 H        -1.511403        -0.808787         2.336563
 H        -2.603451        -0.521580         0.973757
