19
Iteration:   784
 O         0.232810        -0.016033         0.437320
 C        -0.764884         0.732997         1.034552
 C        -1.666131         1.706063         0.177642
 C        -2.580097         2.352665         1.276576
 O        -1.974726         3.234941         2.190851
 C        -1.478873         1.997910         2.952404
 C        -0.292045         1.487901         2.285551
 C        -2.646828         1.131144         2.317280
 C        -2.050320        -0.082940         1.667827
 H         0.455753         0.469038        -0.395001
 H        -0.964358         2.536066        -0.241586
 H        -2.050936         1.331933        -0.747657
 H        -3.482045         2.790447         0.891797
 H        -1.431376         2.212718         4.009245
 H         0.506682         2.251749         2.187216
 H         0.123360         0.615149         2.846789
 H        -3.574773         1.154543         2.870163
 H        -1.715297        -0.933074         2.289698
 H        -2.670891        -0.560709         0.831785
