19
Iteration:   370
 O         0.147621        -0.118224         0.328215
 C        -0.822678         0.688449         0.996199
 C        -1.532264         1.843053         0.195612
 C        -2.536402         2.365603         1.221700
 O        -2.013575         3.200280         2.350777
 C        -1.572751         1.998599         2.962399
 C        -0.246242         1.567202         2.357551
 C        -2.690447         1.125950         2.239562
 C        -1.979234        -0.093709         1.604250
 H         1.119899         0.017062         0.410176
 H        -0.919164         2.748719        -0.103776
 H        -2.088244         1.511111        -0.659545
 H        -3.292376         3.023690         0.767557
 H        -1.624424         2.006998         4.055638
 H         0.443397         2.381654         1.982548
 H         0.286467         0.696118         2.828370
 H        -3.627104         1.136706         2.882897
 H        -1.654612        -0.898412         2.323650
 H        -2.660427        -0.602149         0.851660
