19
Iteration:  1123charge 0 multiplicity 1
 O         0.263636        -0.081414         0.387203
 C        -0.818220         0.720739         1.049233
 C        -1.513609         1.792234         0.237732
 C        -2.695071         2.396962         1.285456
 O        -2.052993         3.182771         2.245918
 C        -1.543954         2.013066         2.908104
 C        -0.238087         1.515037         2.193528
 C        -2.685338         1.190997         2.268481
 C        -1.924061        -0.042935         1.719701
 H        -0.143290        -0.833336        -0.082383
 H        -0.747062         2.487637        -0.153261
 H        -2.078858         1.421915        -0.619398
 H        -3.582824         2.730448         0.705722
 H        -1.636339         2.079190         3.968698
 H         0.389510         2.336802         1.735670
 H         0.539939         0.869964         2.851402
 H        -3.474085         1.009478         2.912393
 H        -1.501489        -0.639014         2.568825
 H        -2.541277        -0.831787         1.167207
