19
Iteration:  1059charge 0 multiplicity 1
 O         0.216787        -0.001280         0.348243
 C        -0.792423         0.745454         1.042111
 C        -1.644829         1.833614         0.181213
 C        -2.714233         2.265615         1.286444
 O        -1.876325         3.191314         2.087635
 C        -1.542527         2.042950         2.925573
 C        -0.245718         1.441281         2.362220
 C        -2.688479         1.120842         2.237119
 C        -1.931321        -0.067370         1.819096
 H         0.369946         0.506352        -0.477159
 H        -1.005410         2.559601        -0.266811
 H        -2.240704         1.186235        -0.443310
 H        -3.675431         2.705940         1.156631
 H        -1.643235         2.240273         3.971090
 H         0.597761         2.150170         2.213809
 H         0.062837         0.566034         3.041542
 H        -3.585339         1.032347         2.784717
 H        -1.453328        -0.468989         2.709522
 H        -2.581095        -0.826767         1.213334
