19
Iteration:  1001
 O         0.136458        -0.240270         0.406199
 C        -0.787843         0.735437         0.989525
 C        -1.613066         1.902818         0.243092
 C        -2.735083         2.240689         1.250069
 O        -2.117285         3.249214         2.193660
 C        -1.445083         2.053812         2.924826
 C        -0.181453         1.530873         2.243447
 C        -2.613332         1.135717         2.323250
 C        -1.882170        -0.022287         1.668515
 H         1.051718         0.053271         0.478047
 H        -1.001172         2.804825         0.022535
 H        -1.982957         1.623865        -0.733131
 H        -3.700880         2.728113         0.902751
 H        -1.342378         2.231088         4.011362
 H         0.566694         2.352343         2.020097
 H         0.395686         0.802563         3.025624
 H        -3.543182         1.044226         2.927785
 H        -1.398554        -0.908000         2.150823
 H        -2.691746        -0.526348         1.009470
