19
Iteration:  3684charge 0 multiplicity 1
 O         0.044930        -0.008463         0.225477
 C        -0.792458         0.726912         1.117013
 C        -1.619124         1.736041         0.278802
 C        -2.620997         2.325930         1.289124
 O        -2.059588         3.228995         2.218368
 C        -1.413029         2.090839         2.889173
 C        -0.209212         1.486193         2.191329
 C        -2.608093         1.121083         2.293370
 C        -1.932444        -0.075928         1.718755
 H         0.794537        -0.339787         0.788058
 H        -0.864445         2.544521        -0.162089
 H        -2.215439         1.165882        -0.438149
 H        -3.612783         2.766416         0.993639
 H        -1.318751         2.328276         3.924483
 H         0.678210         2.056017         2.080224
 H         0.100769         0.808761         3.050489
 H        -3.395471         1.037827         3.009450
 H        -1.566908        -0.842887         2.532384
 H        -2.456311        -0.699746         0.906551
