19
Iteration:   880
 O         0.204093        -0.083581         0.342837
 C        -0.797527         0.703054         1.124352
 C        -1.558256         1.765074         0.212639
 C        -2.648448         2.274140         1.256429
 O        -2.070718         3.256447         2.272362
 C        -1.492398         2.069543         2.919638
 C        -0.159060         1.548521         2.246096
 C        -2.615807         1.130588         2.302222
 C        -1.962754        -0.038342         1.597030
 H        -0.027154        -1.001668         0.609967
 H        -1.228607         2.711303        -0.136319
 H        -2.001163         1.331013        -0.621096
 H        -3.573595         2.681729         0.798144
 H        -1.470535         2.234867         3.982472
 H         0.239336         2.467712         1.905291
 H         0.422362         1.083108         3.008718
 H        -3.489848         0.711773         2.813440
 H        -1.891060        -0.930024         2.200390
 H        -2.722625        -0.202536         0.823966
