19
Iteration:  2030
 O         0.217096        -0.131356         0.268373
 C        -0.833977         0.649318         1.083101
 C        -1.665783         1.647094         0.240368
 C        -2.713966         2.277905         1.331793
 O        -2.117484         3.260495         2.224539
 C        -1.429631         2.155316         2.855620
 C        -0.262251         1.650705         2.076795
 C        -2.562535         1.179758         2.388282
 C        -1.867475        -0.085739         1.775248
 H         0.972216        -0.249670         0.857165
 H        -0.997940         2.332581        -0.216512
 H        -2.232156         1.088109        -0.518222
 H        -3.657877         2.666756         0.849225
 H        -1.446957         2.328910         3.878354
 H         0.420579         2.317884         1.585151
 H         0.352463         1.157815         2.998784
 H        -3.355457         1.157987         3.105420
 H        -1.504360        -0.676802         2.621473
 H        -2.549569        -0.601736         1.059442
