19
Iteration:  2010charge 0 multiplicity 1
 O         0.149370        -0.081709         0.312361
 C        -0.769883         0.729685         0.965995
 C        -1.712037         1.694656         0.144237
 C        -2.631758         2.224033         1.243225
 O        -2.135012         3.286045         2.216678
 C        -1.472405         2.144334         2.902126
 C        -0.129990         1.526306         2.163152
 C        -2.620516         1.139789         2.395425
 C        -1.881970        -0.076326         1.899343
 H         1.039335         0.085555         0.675114
 H        -1.229608         2.298758        -0.509785
 H        -2.364229         1.070242        -0.488955
 H        -3.591649         2.557479         0.798459
 H        -1.237367         2.446028         3.924765
 H         0.502004         2.328007         2.009973
 H         0.497343         0.800194         2.642119
 H        -3.603354         1.129476         2.985333
 H        -1.382830        -0.624930         2.697995
 H        -2.670312        -0.667717         1.361067
