19
Iteration:   244
 O         0.157979        -0.047939         0.310163
 C        -0.814076         0.736341         0.992374
 C        -1.498855         1.964450         0.203142
 C        -2.655012         2.342324         1.215506
 O        -2.032344         3.219548         2.251104
 C        -1.506881         2.026786         2.939143
 C        -0.292422         1.331881         2.287104
 C        -2.626103         1.131695         2.269340
 C        -1.973191        -0.056005         1.711584
 H         0.843532        -0.377903         0.927719
 H        -0.809897         2.766022         0.020622
 H        -1.921467         1.576370        -0.807159
 H        -3.674253         2.597081         0.851031
 H        -1.459245         1.984574         4.056203
 H         0.673120         1.854032         2.219648
 H        -0.042334         0.672995         3.121186
 H        -3.534534         1.068954         2.926518
 H        -1.517959        -0.786728         2.423984
 H        -2.600627        -0.544803         0.980503
