19
Iteration:  3207
 O         0.062530        -0.079108         0.243933
 C        -0.802532         0.725981         1.098143
 C        -1.567976         1.797852         0.240506
 C        -2.660825         2.207912         1.280590
 O        -2.053134         3.228874         2.195879
 C        -1.484382         1.988281         2.937257
 C        -0.105735         1.584021         2.190301
 C        -2.598514         1.173664         2.340291
 C        -1.995224        -0.047786         1.777845
 H         0.929551        -0.213934         0.716161
 H        -1.085236         2.646805        -0.062763
 H        -2.133163         1.274917        -0.550644
 H        -3.621956         2.599071         0.836000
 H        -1.170102         2.105936         4.013791
 H         0.575953         2.280094         1.647078
 H         0.654555         1.170098         2.830716
 H        -3.611295         1.048697         2.763134
 H        -1.840614        -0.793638         2.543132
 H        -2.699787        -0.394143         0.971360
