19
Iteration:  1700charge 0 multiplicity 1
 O         0.210638         0.110409         0.333526
 C        -0.869739         0.698505         1.060659
 C        -1.686838         1.660589         0.168389
 C        -2.576585         2.184571         1.264651
 O        -1.953983         3.199276         2.107204
 C        -1.487084         2.102363         2.920366
 C        -0.266375         1.544324         2.176958
 C        -2.623227         1.157478         2.445379
 C        -2.021407        -0.093622         1.787905
 H         0.946185        -0.192240         0.919683
 H        -0.990131         2.621218        -0.102946
 H        -2.095998         1.222224        -0.782068
 H        -3.543181         2.589521         0.819499
 H        -1.338141         2.385339         4.016974
 H         0.528564         2.288710         1.919536
 H         0.261141         0.822335         2.767199
 H        -3.454461         1.033735         3.192877
 H        -1.751876        -1.021416         2.424792
 H        -2.722736        -0.470117         1.001961
