19
Iteration:   505charge 0 multiplicity 1
 O         0.060534        -0.089251         0.307892
 C        -0.714581         0.706497         1.072503
 C        -1.495447         1.822539         0.207874
 C        -2.595160         2.266033         1.179362
 O        -2.028544         3.237199         2.287856
 C        -1.555152         2.028354         3.006080
 C        -0.265103         1.456207         2.382187
 C        -2.613294         1.175422         2.283950
 C        -2.018974         0.001642         1.543955
 H         0.947263         0.043400         0.634853
 H        -0.951196         2.593680        -0.231308
 H        -1.973456         1.330666        -0.646758
 H        -3.538859         2.771761         0.934590
 H        -1.371668         2.015279         4.097953
 H         0.534974         2.224272         2.194948
 H         0.301166         0.729671         2.997618
 H        -3.502141         1.026006         2.851164
 H        -1.761385        -1.032889         2.035620
 H        -2.538717        -0.268077         0.616471
