19
Iteration:  3719
 O         0.063462        -0.153140         0.167495
 C        -0.807941         0.746930         1.043807
 C        -1.489059         1.791897         0.216111
 C        -2.640930         2.294148         1.334400
 O        -2.016933         3.171401         2.192830
 C        -1.512338         2.056238         3.009398
 C        -0.264562         1.625989         2.192470
 C        -2.622729         1.120872         2.415111
 C        -1.937812        -0.012239         1.765823
 H         0.746264        -0.717745         0.611113
 H        -0.859844         2.675012         0.026908
 H        -1.901599         1.489979        -0.755218
 H        -3.566601         2.681260         0.848836
 H        -1.403916         2.350148         4.036024
 H         0.259757         2.497699         1.723170
 H         0.347482         0.863451         2.834825
 H        -3.626639         0.952614         2.926431
 H        -1.397888        -0.758354         2.478684
 H        -2.471388        -0.533422         0.902082
