19
Iteration:  4502
 O         0.122073        -0.044790         0.267819
 C        -0.746739         0.768122         1.019981
 C        -1.581897         1.802555         0.156682
 C        -2.601860         2.330446         1.281487
 O        -2.104373         3.200206         2.327240
 C        -1.455097         1.996944         2.994640
 C        -0.222906         1.541913         2.130881
 C        -2.576486         1.112007         2.358756
 C        -1.976850        -0.027431         1.734854
 H         0.014135        -0.989971         0.508892
 H        -0.862447         2.549277        -0.239025
 H        -2.049219         1.370694        -0.732783
 H        -3.484336         2.619570         0.711990
 H        -1.298122         2.038914         4.125983
 H         0.360930         2.441532         1.814552
 H         0.235233         0.830554         2.882455
 H        -3.468074         0.970756         3.006929
 H        -1.591112        -0.846186         2.375049
 H        -2.626630        -0.478574         1.025728
