19
Iteration:  3051
 O         0.071367        -0.212581         0.285869
 C        -0.810730         0.729974         1.025311
 C        -1.534035         1.783830         0.254369
 C        -2.613724         2.214151         1.314174
 O        -2.059458         3.212359         2.214503
 C        -1.511458         2.077610         2.977925
 C        -0.189819         1.576577         2.169450
 C        -2.585253         1.165246         2.431384
 C        -1.964634         0.012960         1.718949
 H         0.864819         0.201634        -0.089613
 H        -1.104728         2.772562        -0.251675
 H        -2.035994         1.255436        -0.595251
 H        -3.618710         2.531045         0.771141
 H        -1.216957         2.382169         4.016812
 H         0.179404         2.524578         1.760498
 H         0.553911         1.142184         2.891063
 H        -3.576049         1.046484         2.875768
 H        -1.501242        -0.910924         2.106106
 H        -2.652397        -0.394579         0.944523
