19
Iteration:  2710charge 0 multiplicity 1
 O         0.190540        -0.014957         0.325549
 C        -0.826600         0.718731         1.021888
 C        -1.628418         1.810203         0.134935
 C        -2.660084         2.211829         1.258268
 O        -1.861761         3.203467         2.166359
 C        -1.525003         2.029614         3.008006
 C        -0.233558         1.475961         2.311676
 C        -2.673729         1.191306         2.361596
 C        -1.988929        -0.054420         1.780850
 H         0.022281         0.098629        -0.610518
 H        -1.067823         2.762274        -0.214509
 H        -2.055499         1.270552        -0.726542
 H        -3.656022         2.729289         0.863502
 H        -1.484066         2.223274         4.078222
 H         0.437687         2.281691         2.131456
 H         0.355198         0.637188         2.761349
 H        -3.598757         0.938675         2.829660
 H        -1.605373        -0.720242         2.606889
 H        -2.592747        -0.555947         1.015129
