19
Iteration:  3295
 O         0.054324         0.045424         0.225018
 C        -0.847052         0.711459         1.076608
 C        -1.558167         1.763302         0.199586
 C        -2.564337         2.281039         1.257696
 O        -2.016888         3.272524         2.173926
 C        -1.470283         2.071169         2.968777
 C        -0.238397         1.487495         2.216204
 C        -2.552217         1.159010         2.417488
 C        -1.948142        -0.179126         1.743879
 H         0.250558        -0.827362         0.665799
 H        -0.929175         2.537921        -0.010801
 H        -2.097334         1.367123        -0.705930
 H        -3.542190         2.601340         0.786398
 H        -1.594314         2.293977         4.075670
 H         0.300802         2.386172         1.782549
 H         0.374306         0.819875         2.958230
 H        -3.532270         0.989404         2.986298
 H        -1.473910        -0.731366         2.554780
 H        -2.639696        -0.767263         1.081332
