19
Iteration:  1791
 O         0.270561        -0.162782         0.412307
 C        -0.756086         0.704185         1.044140
 C        -1.666793         1.807027         0.185490
 C        -2.752370         2.250417         1.318345
 O        -2.112487         3.262836         2.189050
 C        -1.459380         2.124670         2.840696
 C        -0.187332         1.515323         2.209664
 C        -2.593669         1.171258         2.343573
 C        -1.934525        -0.047109         1.751570
 H         0.111125        -0.373401        -0.523832
 H        -1.108631         2.683466        -0.094877
 H        -2.116929         1.190007        -0.708460
 H        -3.741810         2.569643         0.939783
 H        -1.453066         2.388362         3.869549
 H         0.487899         2.267770         1.948276
 H         0.394867         0.881877         2.890705
 H        -3.270431         1.123570         3.169010
 H        -1.556154        -0.641663         2.546515
 H        -2.500702        -0.718738         1.150111
