19
Iteration:  1102charge 0 multiplicity 1
 O         0.227526         0.051822         0.376394
 C        -0.815024         0.718661         1.101075
 C        -1.567891         1.717206         0.167002
 C        -2.537895         2.225044         1.237960
 O        -2.003779         3.241722         2.203820
 C        -1.499137         2.069943         2.954740
 C        -0.258721         1.531548         2.251490
 C        -2.628176         1.139436         2.356419
 C        -2.077208        -0.106420         1.709630
 H         0.098134        -0.422750        -0.474682
 H        -1.037659         2.614904        -0.164955
 H        -2.004292         1.167100        -0.643363
 H        -3.511475         2.508160         0.789798
 H        -1.296011         2.262540         3.984980
 H         0.431885         2.400305         1.996015
 H         0.309134         0.901517         3.147038
 H        -3.604151         1.069657         2.703597
 H        -1.910539        -1.038635         2.302996
 H        -2.867389        -0.418324         0.870044
