19
Iteration:  1118
 O         0.285396        -0.044464         0.382370
 C        -0.796051         0.688834         1.023126
 C        -1.524480         1.767615         0.247725
 C        -2.667483         2.345336         1.247022
 O        -2.043427         3.197500         2.253533
 C        -1.540331         2.031526         2.917600
 C        -0.232239         1.526457         2.215660
 C        -2.683152         1.189767         2.297409
 C        -1.979794        -0.074157         1.727346
 H        -0.306978        -0.675649        -0.080102
 H        -0.761680         2.432793        -0.202323
 H        -2.094690         1.529612        -0.692511
 H        -3.521602         2.773246         0.682235
 H        -1.627236         2.164358         4.036700
 H         0.345198         2.312359         1.772139
 H         0.455215         0.961114         2.696049
 H        -3.548643         1.123273         3.070309
 H        -1.632440        -0.770512         2.497603
 H        -2.518320        -0.720241         1.067957
