19
Iteration:  3093charge 0 multiplicity 1
 O         0.072286        -0.021361         0.197439
 C        -0.753223         0.770301         1.038090
 C        -1.649327         1.773579         0.207304
 C        -2.664027         2.240286         1.250309
 O        -2.005511         3.207667         2.186429
 C        -1.494019         2.082524         2.897551
 C        -0.199167         1.386975         2.238177
 C        -2.669217         1.165717         2.400633
 C        -1.862776         0.019143         1.835062
 H         0.820035        -0.241393         0.818074
 H        -1.038891         2.546457        -0.461238
 H        -2.208366         1.239554        -0.506716
 H        -3.665310         2.666304         0.834599
 H        -1.448784         2.294703         3.973813
 H         0.603005         2.067039         2.042302
 H         0.508358         0.700678         2.828712
 H        -3.534150         1.033925         3.106930
 H        -1.534813        -0.620723         2.701899
 H        -2.501585        -0.645150         1.231474
