19
Iteration:  4255charge 0 multiplicity 1
 O         0.083997         0.008746         0.144883
 C        -0.756391         0.654707         1.033541
 C        -1.526344         1.881470         0.235920
 C        -2.636139         2.267728         1.366376
 O        -2.037824         3.252760         2.208879
 C        -1.470649         2.064886         2.954053
 C        -0.258545         1.501392         2.253556
 C        -2.637479         1.098307         2.412579
 C        -1.934301        -0.112140         1.657738
 H         0.289646        -0.866424         0.557438
 H        -0.837122         2.616583         0.031855
 H        -1.866646         1.384254        -0.708161
 H        -3.653941         2.665118         1.089614
 H        -1.309409         2.304860         3.976770
 H         0.594601         2.250592         2.154042
 H         0.102972         0.807191         3.045228
 H        -3.602974         1.007777         2.985092
 H        -1.508693        -0.826245         2.347320
 H        -2.738759        -0.516791         1.012831
