19
Iteration:   525charge 0 multiplicity 1
 O         0.178005         0.022946         0.312733
 C        -0.802385         0.754744         1.043944
 C        -1.520544         1.888095         0.288145
 C        -2.645972         2.320311         1.324291
 O        -1.972957         3.183589         2.112883
 C        -1.499767         2.034169         2.911864
 C        -0.236336         1.304404         2.342284
 C        -2.691647         1.149303         2.291462
 C        -2.083701        -0.098126         1.634249
 H         0.979391         0.235854         0.823510
 H        -0.812146         2.706285         0.061703
 H        -1.857480         1.625157        -0.735535
 H        -3.441069         2.797216         0.794823
 H        -1.484550         2.322733         3.985672
 H         0.675119         1.934265         2.215325
 H        -0.093422         0.485461         2.993079
 H        -3.585270         0.940447         2.914859
 H        -1.589657        -0.780712         2.351415
 H        -2.738936        -0.526075         0.870384
