19
Iteration:  2561charge 0 multiplicity 1
 O         0.170715        -0.030637         0.389419
 C        -0.797275         0.719802         1.061260
 C        -1.598089         1.773842         0.247112
 C        -2.627967         2.336127         1.287624
 O        -1.992634         3.169360         2.207722
 C        -1.497048         2.088253         2.922392
 C        -0.184927         1.494709         2.203053
 C        -2.698570         1.137463         2.332464
 C        -1.960270        -0.059392         1.686872
 H        -0.285670        -0.695720        -0.137263
 H        -0.872256         2.596551        -0.119318
 H        -1.969923         1.302582        -0.697657
 H        -3.425380         2.804167         0.777408
 H        -1.336762         2.246420         4.058132
 H         0.385660         2.345764         1.751660
 H         0.535613         0.853223         2.811381
 H        -3.590387         1.169212         2.968770
 H        -1.786466        -0.906689         2.386525
 H        -2.559112        -0.541751         0.890458
