19
Iteration:  4711charge 0 multiplicity 1
 O         0.192649        -0.006713         0.190846
 C        -0.833194         0.761113         1.023362
 C        -1.669523         1.760636         0.211448
 C        -2.676658         2.303070         1.373992
 O        -1.916699         3.231037         2.143551
 C        -1.500198         2.026284         2.944721
 C        -0.193019         1.448442         2.349946
 C        -2.647314         1.109772         2.400498
 C        -1.962958        -0.030970         1.632771
 H         0.959795         0.008756         0.815898
 H        -1.347095         2.599154        -0.291282
 H        -2.234596         1.195610        -0.555611
 H        -3.667090         2.708618         0.993696
 H        -1.302742         2.252280         4.004464
 H         0.494022         2.199052         2.056583
 H         0.089135         0.624885         2.934315
 H        -3.545068         0.911349         3.093746
 H        -1.690764        -0.830062         2.361536
 H        -2.799141        -0.514617         1.112300
