19
Iteration:  1165charge 0 multiplicity 1
 O         0.171219        -0.034558         0.358083
 C        -0.803626         0.731445         1.034625
 C        -1.526700         1.766835         0.220196
 C        -2.626907         2.247878         1.251130
 O        -2.033977         3.194060         2.125038
 C        -1.534299         2.047011         2.985868
 C        -0.239058         1.539223         2.346309
 C        -2.600142         1.122805         2.376975
 C        -1.968785         0.017590         1.647773
 H        -0.288964        -0.769298        -0.098999
 H        -0.975958         2.593712        -0.273674
 H        -1.740527         1.182907        -0.690477
 H        -3.612338         2.731706         0.972380
 H        -1.426378         2.367547         4.019332
 H         0.439327         2.371612         2.123511
 H         0.300139         0.917837         3.022414
 H        -3.494815         0.932779         2.863378
 H        -1.612742        -0.861569         2.185190
 H        -2.614281        -0.408627         0.921960
