19
Iteration:  4345
 O         0.064905        -0.054188         0.258967
 C        -0.816680         0.693248         1.040191
 C        -1.555874         1.847214         0.308165
 C        -2.667591         2.318108         1.221918
 O        -2.135216         3.203260         2.242256
 C        -1.456878         2.067118         2.878779
 C        -0.137813         1.426385         2.265832
 C        -2.537858         1.140758         2.422266
 C        -1.923363        -0.080978         1.697804
 H         0.271968         0.397271        -0.577895
 H        -0.983516         2.735721         0.060021
 H        -1.881483         1.351719        -0.599730
 H        -3.522691         2.693624         0.702631
 H        -1.261763         2.263500         3.948388
 H         0.803472         2.080203         2.018479
 H         0.217672         0.767126         3.090514
 H        -3.482472         1.010334         2.992266
 H        -1.575702        -0.877726         2.357339
 H        -2.741930        -0.471512         1.098389
