19
Iteration:  3332charge 0 multiplicity 1
 O         0.088270        -0.167270         0.285873
 C        -0.729213         0.747263         0.944261
 C        -1.647990         1.816430         0.260542
 C        -2.639219         2.264934         1.307330
 O        -2.030293         3.273874         2.208899
 C        -1.511203         2.059575         3.007442
 C        -0.140357         1.548164         2.207769
 C        -2.628498         1.143974         2.370893
 C        -1.983451        -0.030013         1.661132
 H         0.649813        -0.608600         0.951099
 H        -1.152416         2.704454        -0.311447
 H        -2.022085         1.256440        -0.635408
 H        -3.555356         2.614369         0.901422
 H        -1.342565         2.118262         4.071550
 H         0.538003         2.426342         1.952796
 H         0.464572         0.929981         2.909412
 H        -3.486848         1.056980         3.003629
 H        -1.643473        -0.881665         2.346902
 H        -2.451384        -0.642248         0.903536
