19
Iteration:  1860
 O         0.176828        -0.014141         0.162522
 C        -0.734053         0.699728         1.040563
 C        -1.615711         1.676812         0.243875
 C        -2.705743         2.262834         1.301069
 O        -2.036414         3.288630         2.114100
 C        -1.551182         2.172363         2.842169
 C        -0.217086         1.472683         2.242522
 C        -2.657945         1.188642         2.425632
 C        -1.935351        -0.161013         1.889969
 H         1.092533         0.172555         0.476423
 H        -0.976423         2.518279        -0.071245
 H        -2.098109         1.121435        -0.611931
 H        -3.542200         2.602113         0.738343
 H        -1.359422         2.372958         3.920224
 H         0.674352         2.192266         2.041478
 H         0.098410         0.763676         3.082981
 H        -3.549160         1.045231         3.164642
 H        -1.622693        -0.662839         2.796720
 H        -2.393428        -0.976942         1.320478
