19
Iteration:  3592charge 0 multiplicity 1
 O         0.015961        -0.121650         0.203686
 C        -0.819247         0.793755         0.999445
 C        -1.557345         1.825859         0.186795
 C        -2.601064         2.251441         1.217893
 O        -2.077087         3.174083         2.255570
 C        -1.517222         2.076388         2.963463
 C        -0.159203         1.517670         2.265748
 C        -2.621963         1.176236         2.455051
 C        -1.902656        -0.026692         1.731137
 H         0.722009        -0.543190         0.711366
 H        -0.904589         2.652562        -0.145421
 H        -1.836325         1.392313        -0.872107
 H        -3.507669         2.588532         0.725668
 H        -1.224842         2.227668         4.079302
 H         0.607533         2.249899         1.878029
 H         0.323877         0.865311         2.945415
 H        -3.534498         0.960788         3.104942
 H        -1.434727        -0.739685         2.448794
 H        -2.528226        -0.586580         1.064363
