19
Iteration:  1784
 O         0.250463        -0.115965         0.400616
 C        -0.828658         0.725847         1.043698
 C        -1.619764         1.789088         0.190176
 C        -2.734363         2.265068         1.275453
 O        -2.132999         3.269694         2.212742
 C        -1.418798         2.098807         2.822475
 C        -0.163264         1.565171         2.185873
 C        -2.619358         1.152407         2.325634
 C        -1.925329        -0.118056         1.838348
 H        -0.061216        -0.474098        -0.444497
 H        -0.886675         2.572608         0.023011
 H        -1.898635         1.312433        -0.748541
 H        -3.662903         2.521711         0.808868
 H        -1.273353         2.365808         3.896501
 H         0.571007         2.423214         1.874766
 H         0.301267         0.802519         2.896948
 H        -3.451182         1.131729         3.128395
 H        -1.579255        -0.902967         2.541050
 H        -2.652314        -0.668788         1.160643
