19
Iteration:  1349
 O         0.323236         0.114698         0.393060
 C        -0.848136         0.687564         1.038022
 C        -1.639430         1.763358         0.165732
 C        -2.620359         2.262860         1.254862
 O        -1.958723         3.248710         2.120509
 C        -1.524986         2.060074         2.953593
 C        -0.316942         1.378500         2.323644
 C        -2.670545         1.173638         2.340845
 C        -1.994503        -0.067567         1.693442
 H        -0.016453        -0.679019        -0.088543
 H        -0.876591         2.522318        -0.172742
 H        -2.176761         1.499432        -0.653636
 H        -3.515865         2.785751         0.766127
 H        -1.341286         2.336250         4.016715
 H         0.655853         1.853955         1.983376
 H         0.017360         0.648540         3.135678
 H        -3.512593         0.927719         2.932556
 H        -1.473827        -0.704683         2.457120
 H        -2.635797        -0.814009         1.290125
