19
Iteration:  1602
 O         0.277248         0.075666         0.359950
 C        -0.830050         0.666012         1.111795
 C        -1.614773         1.640133         0.241776
 C        -2.616125         2.334285         1.241515
 O        -2.053102         3.237895         2.130110
 C        -1.434685         2.082033         2.931772
 C        -0.183044         1.515301         2.282889
 C        -2.658073         1.123205         2.357781
 C        -2.105807        -0.168116         1.734738
 H        -0.031477         0.228576        -0.563385
 H        -0.904394         2.416614        -0.378778
 H        -2.280241         1.054590        -0.429932
 H        -3.310470         2.919437         0.508711
 H        -1.466457         2.348175         4.032676
 H         0.399085         2.350475         1.756523
 H         0.677390         0.990256         2.825802
 H        -3.394294         1.190550         3.215394
 H        -1.785400        -0.863612         2.507830
 H        -2.605296        -0.686168         0.990673
