19
Iteration:  3993
 O         0.111546        -0.043819         0.249259
 C        -0.789728         0.816151         1.005928
 C        -1.591742         1.807594         0.226848
 C        -2.660871         2.307285         1.286015
 O        -2.007096         3.162229         2.285014
 C        -1.501945         2.004246         2.961590
 C        -0.120579         1.401081         2.263345
 C        -2.629221         1.168327         2.345778
 C        -1.981647         0.056155         1.677187
 H         0.019666        -0.970652         0.560072
 H        -1.020181         2.606706        -0.204500
 H        -2.132041         1.297477        -0.676028
 H        -3.605488         2.536158         0.840649
 H        -1.577333         2.175346         4.016644
 H         0.515282         2.282512         1.969913
 H         0.577762         0.827465         2.782446
 H        -3.528125         1.044589         2.889729
 H        -1.418722        -0.725469         2.295696
 H        -2.620265        -0.412519         0.904610
