19
Iteration:  2745charge 0 multiplicity 1
 O         0.142082         0.078803         0.348440
 C        -0.828970         0.721455         1.086491
 C        -1.623393         1.653895         0.210872
 C        -2.622721         2.281471         1.260887
 O        -1.889395         3.300696         2.192850
 C        -1.480368         2.062312         2.950467
 C        -0.215791         1.378606         2.238929
 C        -2.664252         1.180818         2.289735
 C        -1.986153        -0.113694         1.749780
 H         0.206774         0.546838        -0.478790
 H        -1.169852         2.576137        -0.344125
 H        -2.166930         1.089194        -0.525879
 H        -3.625267         2.622865         0.741526
 H        -1.480029         2.258627         4.083704
 H         0.571144         2.155937         2.089396
 H         0.148294         0.569424         3.007266
 H        -3.500380         0.991949         2.950170
 H        -1.854650        -0.912769         2.543873
 H        -2.532841        -0.662439         0.956802
