19
Iteration:  4709
 O         0.178769         0.009186         0.185810
 C        -0.835634         0.773353         1.020103
 C        -1.666968         1.755886         0.207892
 C        -2.702126         2.302427         1.334622
 O        -1.906769         3.245244         2.158092
 C        -1.496653         2.042053         2.939120
 C        -0.202590         1.424620         2.359742
 C        -2.637693         1.089949         2.395780
 C        -1.956551        -0.036920         1.647279
 H         0.868269         0.001436         0.871305
 H        -1.276301         2.574935        -0.313147
 H        -2.208069         1.119061        -0.526125
 H        -3.625828         2.672151         0.975521
 H        -1.304846         2.241855         4.036709
 H         0.546057         2.253501         2.137778
 H         0.146648         0.526997         2.901571
 H        -3.467792         0.895113         3.138570
 H        -1.693564        -0.811973         2.386500
 H        -2.782490        -0.474471         1.149753
