19
Iteration:   978
 O         0.087347        -0.054296         0.411414
 C        -0.835810         0.781717         0.967465
 C        -1.573131         1.822191         0.174946
 C        -2.643444         2.222797         1.236317
 O        -2.009316         3.207291         2.173627
 C        -1.475181         2.059065         2.941122
 C        -0.276011         1.468172         2.284588
 C        -2.604288         1.080215         2.338035
 C        -1.910857        -0.050932         1.704756
 H         0.996577         0.268187         0.241798
 H        -1.087130         2.793747        -0.050802
 H        -2.114927         1.484429        -0.700142
 H        -3.529314         2.774031         0.792095
 H        -1.471606         2.393357         3.996920
 H         0.570777         2.171736         2.003586
 H         0.228173         0.760928         3.076723
 H        -3.485455         1.094275         3.015092
 H        -1.416812        -0.726400         2.466826
 H        -2.548117        -0.785191         1.154823
