19
Iteration:  3148charge 0 multiplicity 1
 O         0.167897         0.106416         0.222310
 C        -0.843260         0.714910         1.051136
 C        -1.652289         1.676160         0.236742
 C        -2.694571         2.284563         1.271304
 O        -1.955084         3.183909         2.123323
 C        -1.433184         2.044907         2.903143
 C        -0.157205         1.514983         2.291065
 C        -2.668751         1.160703         2.416490
 C        -1.985940        -0.067163         1.796530
 H         0.261663        -0.748128         0.655111
 H        -0.974972         2.490997        -0.270223
 H        -2.062368         1.252992        -0.650387
 H        -3.554842         2.830017         0.769233
 H        -1.209704         2.279330         3.939967
 H         0.433718         2.277473         1.847456
 H         0.249659         0.677473         2.921479
 H        -3.491919         1.130533         3.137073
 H        -1.634254        -0.852383         2.513934
 H        -2.626275        -0.643660         1.130064
