19
Iteration:  3538
 O         0.185555         0.080042         0.224630
 C        -0.864278         0.759225         1.011953
 C        -1.682198         1.698877         0.183241
 C        -2.557692         2.271744         1.297501
 O        -1.975737         3.240839         2.191789
 C        -1.488836         2.030014         2.969580
 C        -0.270969         1.398557         2.254155
 C        -2.597260         1.222485         2.361557
 C        -1.972758        -0.018637         1.774722
 H         0.718636        -0.613288         0.626783
 H        -1.039548         2.376403        -0.304518
 H        -2.296753         0.943316        -0.392621
 H        -3.554251         2.447866         0.915345
 H        -1.233671         2.209439         4.075745
 H         0.533816         2.173192         2.021229
 H         0.302900         0.641200         2.779482
 H        -3.564005         0.924984         2.835219
 H        -1.707983        -0.807880         2.529357
 H        -2.735315        -0.481275         1.138950
