19
Iteration:  1180
 O         0.276973         0.079347         0.326844
 C        -0.779977         0.720217         1.152277
 C        -1.577324         1.726228         0.283674
 C        -2.641838         2.200770         1.250061
 O        -1.968877         3.241035         2.129018
 C        -1.497142         2.117468         2.889762
 C        -0.219566         1.452552         2.279926
 C        -2.701891         1.156612         2.356593
 C        -2.054684        -0.117582         1.693000
 H        -0.155449        -0.476713        -0.353997
 H        -0.971539         2.580269         0.066933
 H        -2.123072         1.394406        -0.581567
 H        -3.513818         2.481769         0.701014
 H        -1.371402         2.340556         3.950697
 H         0.464683         2.262577         1.936527
 H         0.307859         0.735738         3.108472
 H        -3.632320         1.063908         2.996700
 H        -1.972289        -0.962788         2.388718
 H        -2.710893        -0.334725         0.758764
