19
Iteration:  1332
 O         0.231074         0.140050         0.397810
 C        -0.823499         0.734943         1.069243
 C        -1.658129         1.722371         0.189053
 C        -2.612173         2.271538         1.221694
 O        -1.845668         3.162452         2.130522
 C        -1.554463         2.011200         2.956094
 C        -0.239819         1.516450         2.367904
 C        -2.641911         1.161071         2.295697
 C        -2.029952        -0.120501         1.725235
 H         0.052596        -0.663277        -0.134968
 H        -1.159732         2.496175        -0.412713
 H        -2.052356         0.990040        -0.692104
 H        -3.536416         2.784816         0.950760
 H        -1.678970         2.379647         4.005361
 H         0.305007         2.422276         2.245822
 H         0.218448         0.664713         2.820289
 H        -3.644467         1.162334         2.798105
 H        -1.745900        -0.960323         2.399865
 H        -2.620658        -0.393848         0.799252
