19
Iteration:   294
 O         0.224117         0.206038         0.236160
 C        -0.807229         0.714243         1.079469
 C        -1.626978         1.665167         0.219227
 C        -2.540134         2.361897         1.175523
 O        -1.878953         3.198256         2.245805
 C        -1.615571         1.911663         2.982596
 C        -0.241014         1.403067         2.395152
 C        -2.706250         1.214697         2.232464
 C        -2.025200        -0.084414         1.705695
 H         0.224706        -0.734402         0.410766
 H        -1.007301         2.430880        -0.234867
 H        -2.076337         1.087176        -0.538382
 H        -3.410713         2.838066         0.738751
 H        -1.659609         2.050299         4.069558
 H         0.484542         2.209330         2.255678
 H         0.369342         0.755494         3.011938
 H        -3.650111         1.284913         2.811080
 H        -1.945557        -0.745986         2.570392
 H        -2.523703        -0.589269         0.835349
