19
Iteration:  3483charge 0 multiplicity 1
 O         0.052482         0.019438         0.201658
 C        -0.804134         0.797713         1.061674
 C        -1.599084         1.729658         0.184661
 C        -2.587976         2.239935         1.263834
 O        -1.952416         3.189801         2.215692
 C        -1.477007         2.074793         2.909587
 C        -0.185915         1.511817         2.334372
 C        -2.664373         1.176436         2.386989
 C        -1.987157        -0.104552         1.725796
 H         0.752826        -0.436153         0.676339
 H        -1.061635         2.521190        -0.158604
 H        -2.091995         1.129968        -0.611916
 H        -3.461927         2.548107         0.737154
 H        -1.438417         2.335146         4.007699
 H         0.504076         2.342304         2.043207
 H         0.189399         0.655390         2.851936
 H        -3.564747         1.102962         3.002406
 H        -1.535080        -0.779699         2.466506
 H        -2.655913        -0.590184         1.026195
