19
Iteration:  3532charge 0 multiplicity 1
 O         0.166441         0.161665         0.222507
 C        -0.854161         0.746986         1.051928
 C        -1.667168         1.690687         0.149529
 C        -2.561121         2.230062         1.297417
 O        -1.926302         3.251650         2.166599
 C        -1.442298         2.000415         2.957668
 C        -0.272954         1.414025         2.277830
 C        -2.600250         1.148530         2.402470
 C        -1.997468        -0.024956         1.744078
 H         0.469390        -0.539590         0.864352
 H        -1.138354         2.475374        -0.533404
 H        -2.320740         1.035544        -0.401281
 H        -3.590748         2.458190         0.907493
 H        -1.300439         2.311581         3.954626
 H         0.507840         2.023070         1.883482
 H        -0.005213         0.549452         3.007697
 H        -3.620319         1.045664         2.743761
 H        -1.746864        -0.543045         2.706360
 H        -2.771658        -0.604445         1.189266
