19
Iteration:  4794
 O         0.084644        -0.027692         0.243933
 C        -0.803216         0.765042         1.072237
 C        -1.556518         1.794124         0.274161
 C        -2.623188         2.268663         1.318018
 O        -1.996371         3.187453         2.160053
 C        -1.481409         2.028758         2.934283
 C        -0.213407         1.486975         2.364416
 C        -2.644055         1.148674         2.348980
 C        -1.926284        -0.101960         1.653388
 H        -0.154878         0.105814        -0.685138
 H        -0.923701         2.657594        -0.049379
 H        -2.210914         1.374049        -0.504604
 H        -3.529172         2.624959         0.918169
 H        -1.379434         2.451671         3.934304
 H         0.562490         2.293230         2.268317
 H         0.354889         0.698843         2.893788
 H        -3.461731         1.123910         3.050753
 H        -1.698342        -0.776643         2.456873
 H        -2.421442        -0.515727         0.795443
