19
Iteration:   994charge 0 multiplicity 1
 O         0.117624        -0.218090         0.420351
 C        -0.780221         0.781725         1.028839
 C        -1.599956         1.959856         0.179179
 C        -2.702289         2.284069         1.290453
 O        -2.077992         3.201997         2.174263
 C        -1.519248         2.083535         2.871420
 C        -0.211534         1.477731         2.197648
 C        -2.615216         1.129547         2.395886
 C        -1.870704        -0.059636         1.706826
 H         0.965680         0.243015         0.570703
 H        -0.896386         2.735859        -0.102277
 H        -1.850680         1.582102        -0.840850
 H        -3.697950         2.482332         1.010528
 H        -1.293460         2.172481         3.922145
 H         0.530767         2.236948         2.088872
 H         0.031446         0.633914         2.721253
 H        -3.446468         0.776616         2.953397
 H        -1.355232        -0.729478         2.369589
 H        -2.469024        -0.480932         0.877241
