19
Iteration:  2151charge 0 multiplicity 1
 O         0.100649        -0.192143         0.335740
 C        -0.775377         0.767726         1.039612
 C        -1.779854         1.716071         0.258579
 C        -2.724555         2.218317         1.287606
 O        -2.071116         3.241105         2.100706
 C        -1.467055         2.175685         2.857305
 C        -0.190621         1.659371         2.153640
 C        -2.572422         1.094551         2.411562
 C        -1.759930        -0.046277         1.804057
 H         1.006605        -0.227888         0.696958
 H        -1.312621         2.626772        -0.036650
 H        -2.217638         1.256972        -0.673718
 H        -3.685066         2.735024         1.080237
 H        -1.283193         2.352499         3.884762
 H         0.562828         2.265863         1.832451
 H         0.355365         0.985538         2.814901
 H        -3.346518         0.746256         3.163018
 H        -1.341548        -0.713643         2.568008
 H        -2.409004        -0.556571         1.057891
