19
Iteration:  4198
 O         0.129644        -0.044895         0.254858
 C        -0.843754         0.646182         0.992080
 C        -1.690450         1.808786         0.233492
 C        -2.563884         2.308167         1.294219
 O        -1.899010         3.227049         2.280472
 C        -1.589581         2.056148         3.041686
 C        -0.280284         1.479510         2.219633
 C        -2.623088         1.159414         2.329730
 C        -1.909111        -0.078282         1.623559
 H         1.012591         0.349065         0.287427
 H        -1.037841         2.569400        -0.254741
 H        -2.292528         1.359653        -0.554638
 H        -3.480945         2.920384         0.966823
 H        -1.449572         2.149646         4.115115
 H         0.392129         2.292342         2.075349
 H         0.257902         0.672682         2.739141
 H        -3.455031         1.088396         2.981020
 H        -1.584006        -0.784875         2.377102
 H        -2.480900        -0.811099         1.014646
