19
Iteration:  4706charge 0 multiplicity 1
 O         0.155226         0.034684         0.185654
 C        -0.832016         0.786588         1.013211
 C        -1.675574         1.746728         0.207637
 C        -2.720671         2.292878         1.283865
 O        -1.896963         3.256003         2.178758
 C        -1.486453         2.061277         2.938436
 C        -0.217157         1.397150         2.360150
 C        -2.623090         1.078840         2.392600
 C        -1.951027        -0.046724         1.678212
 H         0.792064        -0.038157         0.915499
 H        -1.125083         2.599134        -0.363634
 H        -2.173976         1.045044        -0.488508
 H        -3.649673         2.675021         0.922346
 H        -1.354152         2.237181         4.029574
 H         0.578529         2.244494         2.259713
 H         0.230347         0.451715         2.882248
 H        -3.350416         0.882112         3.142575
 H        -1.656072        -0.794001         2.411583
 H        -2.778792        -0.466771         1.084077
