19
Iteration:  3647charge 0 multiplicity 1
 O         0.151525         0.202318         0.248042
 C        -0.826110         0.788179         1.020528
 C        -1.738013         1.721570         0.141817
 C        -2.580040         2.218626         1.313446
 O        -1.815729         3.076264         2.067834
 C        -1.484617         2.006160         2.989004
 C        -0.230409         1.509683         2.313254
 C        -2.616962         1.204978         2.387038
 C        -2.071765        -0.100939         1.802218
 H         0.539292        -0.536894         0.787592
 H        -1.098321         2.450445        -0.447232
 H        -2.147977         1.054895        -0.724790
 H        -3.584050         2.574038         1.034662
 H        -1.276170         2.180883         4.131155
 H         0.444458         2.378262         2.097386
 H         0.152865         0.718933         2.869448
 H        -3.567868         1.086943         2.993968
 H        -1.941675        -0.757120         2.639741
 H        -2.738887        -0.498073         1.073452
