19
Iteration:  3921
 O         0.128625         0.106784         0.239519
 C        -0.821153         0.704063         1.094280
 C        -1.641670         1.730975         0.251465
 C        -2.663646         2.278911         1.213662
 O        -1.882910         3.155625         2.171663
 C        -1.485331         2.032451         2.940881
 C        -0.181192         1.399142         2.347034
 C        -2.646761         1.219678         2.353499
 C        -2.000258        -0.080333         1.713550
 H         0.308772         0.603951        -0.590749
 H        -1.015753         2.464180        -0.293574
 H        -2.219005         1.177607        -0.447368
 H        -3.594507         2.802735         0.968533
 H        -1.519264         2.238293         4.059852
 H         0.615827         2.124239         2.312712
 H         0.364549         0.591815         2.977070
 H        -3.550435         1.047250         2.925184
 H        -1.750703        -0.735985         2.529485
 H        -2.713734        -0.649955         1.132166
