19
Iteration:  3560
 O         0.075527        -0.072738         0.212024
 C        -0.806528         0.721133         1.067678
 C        -1.602413         1.809496         0.218182
 C        -2.667175         2.328062         1.282680
 O        -1.971820         3.217004         2.253418
 C        -1.473129         2.044766         2.864953
 C        -0.158921         1.603715         2.272881
 C        -2.653842         1.104765         2.391667
 C        -1.958869        -0.132299         1.671959
 H         0.662310        -0.570252         0.841426
 H        -0.963560         2.643751        -0.017063
 H        -2.144665         1.218359        -0.594807
 H        -3.539194         2.773356         0.784506
 H        -1.339030         2.275324         3.992993
 H         0.545443         2.284631         1.723560
 H         0.399564         1.153585         3.090033
 H        -3.576107         0.955456         3.031162
 H        -1.756140        -0.745456         2.582982
 H        -2.528333        -0.769931         0.997601
