19
Iteration:  2802charge 0 multiplicity 1
 O        -0.011605        -0.148649         0.360115
 C        -0.858090         0.714262         0.983486
 C        -1.542647         1.861451         0.247599
 C        -2.630762         2.336575         1.228096
 O        -2.106894         3.193454         2.280363
 C        -1.423193         2.063247         2.918706
 C        -0.157782         1.463785         2.184220
 C        -2.577410         1.182076         2.246761
 C        -1.883454        -0.092789         1.763694
 H         0.821845         0.391238         0.438071
 H        -0.884028         2.675013        -0.080438
 H        -2.140861         1.454379        -0.578089
 H        -3.594876         2.606701         0.798758
 H        -1.357222         2.298029         4.037265
 H         0.572783         2.314033         1.826821
 H         0.261241         0.748853         2.989896
 H        -3.511955         1.097555         2.892023
 H        -1.345499        -0.599499         2.567797
 H        -2.483671        -0.772210         1.114560
