19
Iteration:  1568charge 0 multiplicity 1
 O         0.208700         0.030299         0.361778
 C        -0.795968         0.838833         1.021096
 C        -1.671125         1.765880         0.190271
 C        -2.693971         2.262315         1.255372
 O        -1.907247         3.179875         2.072831
 C        -1.547017         2.053652         2.939150
 C        -0.289021         1.440528         2.342098
 C        -2.667514         1.123234         2.368542
 C        -1.859301        -0.053763         1.750037
 H        -0.269438        -0.757752         0.007133
 H        -1.021757         2.584099        -0.393900
 H        -2.201619         1.199307        -0.595691
 H        -3.424772         2.876304         0.674745
 H        -1.495762         2.327525         4.025863
 H         0.448926         2.308976         2.230393
 H         0.088855         0.646343         2.999383
 H        -3.464324         0.932281         3.095747
 H        -1.360802        -0.560207         2.591799
 H        -2.258470        -0.800837         1.135639
