19
Iteration:  3056
 O         0.037469        -0.191639         0.265462
 C        -0.806618         0.692016         1.028429
 C        -1.523639         1.823606         0.239497
 C        -2.607501         2.237600         1.280609
 O        -2.046406         3.221932         2.226700
 C        -1.509683         2.124243         2.958434
 C        -0.169116         1.620384         2.183819
 C        -2.615920         1.104047         2.436113
 C        -1.946220        -0.051079         1.730959
 H         0.960223         0.090563         0.034059
 H        -0.937578         2.601513        -0.083804
 H        -1.988297         1.277413        -0.622532
 H        -3.496919         2.509381         0.864315
 H        -1.336300         2.375232         4.005698
 H        -0.001423         2.562773         1.622790
 H         0.459653         1.116245         2.893314
 H        -3.489728         0.978534         3.102126
 H        -1.647686        -0.993178         2.206869
 H        -2.667850        -0.338703         0.938466
