19
Iteration:  3632charge 0 multiplicity 1
 O         0.153537         0.204304         0.238762
 C        -0.859543         0.712441         1.124869
 C        -1.673925         1.645636         0.193286
 C        -2.679303         2.307127         1.228843
 O        -1.852761         3.204052         2.143123
 C        -1.433446         2.054189         2.934427
 C        -0.208276         1.407533         2.262003
 C        -2.689866         1.116771         2.421433
 C        -2.014912        -0.066771         1.740683
 H         0.579784        -0.548461         0.697856
 H        -1.088507         2.413700        -0.216629
 H        -2.277112         0.989127        -0.398465
 H        -3.511156         2.907193         0.867327
 H        -1.452638         2.386030         3.941525
 H         0.483616         2.190448         1.945077
 H         0.451041         0.738757         2.902547
 H        -3.542739         1.000697         3.101608
 H        -1.498400        -0.860263         2.283677
 H        -2.671040        -0.583267         1.019028
