19
Iteration:  3660charge 0 multiplicity 1
 O         0.181016         0.087038         0.213787
 C        -0.846921         0.773136         1.044493
 C        -1.745568         1.735006         0.162903
 C        -2.653084         2.202733         1.238328
 O        -1.818578         3.198644         2.092855
 C        -1.480283         2.003110         3.010687
 C        -0.251094         1.466050         2.322092
 C        -2.617358         1.153569         2.407733
 C        -2.004454        -0.049792         1.783770
 H         0.698191        -0.479228         0.803255
 H        -1.264983         2.794785        -0.115769
 H        -2.390886         1.245887        -0.620328
 H        -3.629762         2.676095         0.945223
 H        -1.640064         2.283937         4.096922
 H         0.505991         2.237087         2.178104
 H         0.331065         0.741374         2.879096
 H        -3.549439         1.246033         2.947401
 H        -1.415250        -0.826587         2.350018
 H        -2.680234        -0.611842         1.105876
