19
Iteration:  1310charge 0 multiplicity 1
 O         0.192357         0.032003         0.400333
 C        -0.789824         0.760312         1.086185
 C        -1.591355         1.702348         0.265929
 C        -2.635206         2.323825         1.235899
 O        -1.940600         3.158006         2.126700
 C        -1.480089         2.030279         2.944455
 C        -0.195303         1.507226         2.364058
 C        -2.743046         1.105121         2.275204
 C        -1.961049         0.004185         1.649218
 H        -0.296635        -0.401760        -0.330111
 H        -0.989435         2.442546        -0.305681
 H        -2.150216         1.095424        -0.639115
 H        -3.523918         2.727422         0.759045
 H        -1.636327         2.152448         4.042601
 H         0.268574         2.409980         2.031001
 H         0.390078         0.846901         3.001393
 H        -3.594207         0.830687         2.942304
 H        -1.673590        -0.527592         2.553341
 H        -2.490455        -0.531153         0.792842
