19
Iteration:  3361
 O         0.059188         0.111650         0.262837
 C        -0.838707         0.720351         1.048477
 C        -1.622954         1.716905         0.217218
 C        -2.572068         2.243270         1.237782
 O        -1.908198         3.192609         2.155398
 C        -1.492821         2.038513         2.968821
 C        -0.192627         1.503938         2.232444
 C        -2.645943         1.133891         2.366266
 C        -2.014898        -0.088372         1.779808
 H         0.784692        -0.246241         0.762739
 H        -1.024515         2.435111        -0.179923
 H        -2.015449         1.239085        -0.694768
 H        -3.502130         2.756376         0.927127
 H        -1.293913         2.260481         4.064845
 H         0.464521         2.328661         1.861833
 H         0.167600         0.697382         2.927494
 H        -3.567380         1.168537         3.026681
 H        -1.747253        -0.811486         2.559698
 H        -2.551674        -0.632732         0.962981
