19
Iteration:  3542
 O         0.184291         0.043922         0.221145
 C        -0.844626         0.735562         1.001599
 C        -1.692210         1.687485         0.212151
 C        -2.577932         2.296800         1.284335
 O        -1.992521         3.229435         2.207509
 C        -1.498848         2.059511         2.988386
 C        -0.251729         1.415215         2.234924
 C        -2.608169         1.234103         2.351105
 C        -1.965083        -0.030101         1.783585
 H         0.787935        -0.634383         0.592139
 H        -0.979834         2.421739        -0.316172
 H        -2.237375         1.081148        -0.473740
 H        -3.588940         2.611929         0.899515
 H        -1.312830         2.165733         4.021987
 H         0.468111         2.228135         2.111305
 H         0.435743         0.641863         2.758668
 H        -3.485852         0.995201         2.934147
 H        -1.616965        -0.910592         2.420220
 H        -2.704816        -0.465106         1.042445
