19
Iteration:  4118charge 0 multiplicity 1
 O         0.064781        -0.131972         0.222060
 C        -0.834154         0.727040         1.056514
 C        -1.525557         1.852132         0.273695
 C        -2.600344         2.336384         1.271876
 O        -2.101503         3.194988         2.301955
 C        -1.484464         2.021134         2.953837
 C        -0.188614         1.435653         2.289309
 C        -2.614915         1.180381         2.251837
 C        -1.895834        -0.045675         1.722802
 H         0.166607         0.312265        -0.630219
 H        -0.765906         2.659709        -0.064852
 H        -1.917743         1.300550        -0.584083
 H        -3.509128         2.807330         0.865926
 H        -1.343534         2.175772         4.107586
 H         0.441489         2.241592         2.091241
 H         0.339555         0.680769         2.833555
 H        -3.617054         1.133452         2.804777
 H        -1.364396        -0.650613         2.541663
 H        -2.549606        -0.478943         0.942787
