19
Iteration:   901charge 0 multiplicity 1
 O         0.238066        -0.024931         0.436958
 C        -0.857223         0.802600         1.014295
 C        -1.599009         1.873320         0.234892
 C        -2.679088         2.247205         1.227834
 O        -1.985497         3.185554         2.147844
 C        -1.486411         2.014380         2.895632
 C        -0.214016         1.478077         2.274446
 C        -2.621671         1.106363         2.402294
 C        -1.975254        -0.061336         1.640784
 H        -0.139433        -0.828039         0.024131
 H        -1.092091         2.769020        -0.073275
 H        -1.980895         1.501126        -0.647280
 H        -3.673249         2.625071         0.859624
 H        -1.351472         2.415652         3.894406
 H         0.515756         2.267541         2.151098
 H         0.003312         0.625703         2.955554
 H        -3.576158         1.105989         2.981543
 H        -1.392882        -0.646061         2.361623
 H        -2.583374        -0.650080         0.981475
