19
Iteration:  2435charge 0 multiplicity 1
 O         0.236760        -0.099495         0.367427
 C        -0.798095         0.715502         1.001432
 C        -1.589607         1.766934         0.175137
 C        -2.709467         2.272365         1.340172
 O        -1.993882         3.208507         2.155568
 C        -1.504113         2.068320         2.929659
 C        -0.187457         1.558755         2.183241
 C        -2.693782         1.155679         2.369411
 C        -1.953163        -0.045896         1.809401
 H        -0.202878        -0.452472        -0.439620
 H        -1.073950         2.636293        -0.083271
 H        -2.131788         1.474986        -0.733030
 H        -3.660124         2.775844         0.931212
 H        -1.432881         2.236039         3.958714
 H         0.497318         2.382753         1.910089
 H         0.524815         0.921462         2.824855
 H        -3.609659         1.055394         3.064408
 H        -1.412191        -0.721323         2.483581
 H        -2.579438        -0.673794         1.143670
