19
Iteration:   774charge 0 multiplicity 1
 O         0.261552        -0.070060         0.413037
 C        -0.849081         0.740346         1.046819
 C        -1.605057         1.824230         0.208465
 C        -2.608547         2.354755         1.235448
 O        -1.966725         3.200312         2.218888
 C        -1.563134         1.997748         2.933773
 C        -0.207262         1.460012         2.221597
 C        -2.717611         1.142180         2.261709
 C        -1.962164        -0.074915         1.736708
 H         0.411807         0.078038        -0.551950
 H        -0.918986         2.695203         0.003338
 H        -2.270545         1.431388        -0.464052
 H        -3.506188         2.782668         0.856364
 H        -1.411850         2.061756         4.005266
 H         0.447739         2.359221         2.036294
 H         0.278266         0.803350         2.994652
 H        -3.646921         0.898306         2.756250
 H        -1.726940        -0.641982         2.636149
 H        -2.642196        -0.606279         1.012665
