19
Iteration:  3760charge 0 multiplicity 1
 O         0.205046         0.140482         0.225434
 C        -0.803534         0.712245         1.037330
 C        -1.722701         1.664727         0.186980
 C        -2.650442         2.270558         1.254626
 O        -1.964682         3.169646         2.169446
 C        -1.408877         2.055602         2.969160
 C        -0.210557         1.407013         2.271226
 C        -2.688597         1.245493         2.413150
 C        -1.941468        -0.034900         1.725099
 H         0.347651        -0.719737         0.654186
 H        -1.118972         2.357540        -0.523737
 H        -2.275065         1.054332        -0.526067
 H        -3.570039         2.840870         0.993082
 H        -1.237195         2.299696         4.005651
 H         0.603098         2.067345         2.228746
 H         0.102948         0.651412         2.956552
 H        -3.505740         1.151896         3.102496
 H        -1.768419        -0.760318         2.536522
 H        -2.732445        -0.463546         1.081520
