19
Iteration:  1586charge 0 multiplicity 1
 O         0.256480         0.116299         0.329650
 C        -0.823753         0.667609         1.045344
 C        -1.666742         1.624745         0.168169
 C        -2.577509         2.274126         1.196766
 O        -1.962254         3.238629         2.201616
 C        -1.555726         2.071046         2.941554
 C        -0.237648         1.485655         2.291654
 C        -2.648190         1.214969         2.316691
 C        -1.939749        -0.083320         1.834697
 H        -0.038610        -0.292944        -0.523554
 H        -1.069087         2.337098        -0.382551
 H        -2.263929         1.061035        -0.590893
 H        -3.575906         2.528561         1.017853
 H        -1.478867         2.235255         4.000136
 H         0.504561         2.231167         2.067622
 H         0.160258         0.755715         2.971876
 H        -3.640015         1.079905         2.682198
 H        -1.594487        -0.750548         2.662344
 H        -2.737323        -0.631509         1.186077
