19
Iteration:   816
 O         0.152302         0.047874         0.291615
 C        -0.798738         0.744476         1.078164
 C        -1.646436         1.766646         0.247714
 C        -2.643718         2.264408         1.273079
 O        -1.916394         3.183246         2.044279
 C        -1.509010         2.040686         2.934221
 C        -0.242111         1.418164         2.423553
 C        -2.657350         1.136764         2.343533
 C        -2.005658        -0.058384         1.706497
 H         1.029831         0.451522         0.367909
 H        -1.038620         2.712663        -0.077284
 H        -1.986200         1.179000        -0.754852
 H        -3.546052         2.736612         0.869124
 H        -1.435593         2.466342         3.920849
 H         0.637611         2.059047         2.326951
 H         0.085395         0.566023         3.037409
 H        -3.603119         1.006554         2.874156
 H        -1.737915        -0.919841         2.350799
 H        -2.573105        -0.429249         0.752412
