19
Iteration:   574
 O         0.130285         0.026974         0.247711
 C        -0.767494         0.759427         1.161225
 C        -1.610728         1.778904         0.248760
 C        -2.516327         2.390470         1.210907
 O        -1.925511         3.165327         2.279381
 C        -1.540001         1.910398         2.947378
 C        -0.293725         1.471564         2.380850
 C        -2.693907         1.169379         2.246000
 C        -1.987301        -0.042776         1.562498
 H         0.746729        -0.448522         0.828423
 H        -1.033914         2.246375        -0.559392
 H        -2.238712         1.204120        -0.407530
 H        -3.401993         2.742659         0.571239
 H        -1.486331         2.221734         3.988901
 H         0.333924         2.349926         2.175884
 H         0.263783         0.804833         3.180291
 H        -3.700321         1.100377         2.713204
 H        -1.797309        -0.740326         2.449870
 H        -2.474005        -0.521141         0.660424
