19
Iteration:  3553charge 0 multiplicity 1
 O         0.134280        -0.019849         0.188588
 C        -0.768322         0.655829         1.052241
 C        -1.643638         1.717172         0.214076
 C        -2.680054         2.334707         1.255462
 O        -1.981629         3.219569         2.251860
 C        -1.482251         2.066052         2.949499
 C        -0.173628         1.530872         2.238572
 C        -2.641793         1.148624         2.404351
 C        -1.966585        -0.089971         1.712820
 H         0.585986        -0.501385         0.907071
 H        -1.062033         2.605320        -0.259303
 H        -2.207932         1.381440        -0.613403
 H        -3.491727         2.982088         0.817851
 H        -1.535823         2.303821         3.975824
 H         0.429308         2.359353         1.867582
 H         0.305523         0.805665         3.017446
 H        -3.498415         1.241813         3.047508
 H        -1.547851        -0.840427         2.476722
 H        -2.571884        -0.612636         0.912356
