19
Iteration:  4972
 O         0.263425         0.111126         0.326843
 C        -0.876692         0.777288         1.060605
 C        -1.704739         1.763148         0.181877
 C        -2.676560         2.385665         1.299738
 O        -1.891031         3.210505         2.191518
 C        -1.428824         2.023259         2.935170
 C        -0.198132         1.345408         2.237341
 C        -2.684709         1.107243         2.347597
 C        -2.015786        -0.104568         1.749762
 H        -0.127674        -0.053692        -0.542359
 H        -1.093633         2.486697        -0.301573
 H        -2.086701         1.088200        -0.660977
 H        -3.586427         2.788042         0.968984
 H        -1.264216         2.172451         4.024721
 H         0.514314         2.188140         2.122122
 H         0.154203         0.497948         2.907913
 H        -3.630186         0.886628         2.980647
 H        -1.535264        -0.764485         2.520684
 H        -2.696532        -0.715440         1.070654
