19
Iteration:  1964charge 0 multiplicity 1
 O         0.145868        -0.025420         0.274779
 C        -0.785450         0.707937         1.140941
 C        -1.707706         1.678106         0.241925
 C        -2.689240         2.203005         1.273194
 O        -1.979781         3.214193         1.971505
 C        -1.515486         2.176494         2.938818
 C        -0.140864         1.568659         2.301385
 C        -2.598670         1.154930         2.441028
 C        -1.936081        -0.095627         1.835702
 H         0.368632         0.663404        -0.395613
 H        -1.303348         2.510494        -0.268574
 H        -2.139942         1.073341        -0.539413
 H        -3.760803         2.429995         0.994414
 H        -1.489106         2.335385         3.982923
 H         0.718938         2.086566         1.961327
 H         0.372811         0.785417         2.950263
 H        -3.463239         1.015250         3.019160
 H        -1.482408        -0.882381         2.473248
 H        -2.424395        -0.478768         0.931332
