19
Iteration:  4375charge 0 multiplicity 1
 O        -0.001972        -0.169327         0.196595
 C        -0.798485         0.767865         1.023528
 C        -1.568415         1.844662         0.264479
 C        -2.640646         2.285761         1.243313
 O        -2.011545         3.176247         2.264278
 C        -1.471620         2.010031         2.970509
 C        -0.236018         1.608501         2.288420
 C        -2.611598         1.116702         2.373975
 C        -1.872205        -0.044827         1.696008
 H         0.906936         0.137699         0.070250
 H        -1.068412         2.735669        -0.016345
 H        -1.888949         1.257083        -0.666436
 H        -3.491912         2.796518         0.678855
 H        -1.414135         2.092826         4.048577
 H         0.309381         2.457351         1.938516
 H         0.359887         1.037308         2.909311
 H        -3.498493         0.926086         3.053567
 H        -1.420545        -0.753298         2.410856
 H        -2.625189        -0.587816         1.002554
