19
Iteration:  1070
 O         0.239927         0.021554         0.381550
 C        -0.785431         0.812911         1.062530
 C        -1.731910         1.788275         0.229052
 C        -2.735753         2.318091         1.244426
 O        -1.873657         3.185018         2.053352
 C        -1.497051         2.031325         2.872117
 C        -0.233785         1.374081         2.395209
 C        -2.709038         1.154933         2.352044
 C        -1.908489        -0.078780         1.775371
 H         0.314961         0.310630        -0.538102
 H        -1.344646         2.700074        -0.176913
 H        -2.031406         1.297996        -0.683943
 H        -3.610404         2.613246         0.733043
 H        -1.415478         2.308189         3.899817
 H         0.664653         2.022638         2.279269
 H         0.055125         0.552087         3.166506
 H        -3.616790         0.911151         2.831483
 H        -1.556779        -0.841958         2.488451
 H        -2.523306        -0.705223         1.002023
