19
Iteration:  3718charge 0 multiplicity 1
 O         0.064703        -0.155542         0.161737
 C        -0.807806         0.746169         1.046085
 C        -1.482775         1.785456         0.210090
 C        -2.641254         2.292197         1.325578
 O        -2.025870         3.175657         2.195979
 C        -1.514061         2.055495         3.023817
 C        -0.252834         1.615216         2.186026
 C        -2.618565         1.112485         2.414555
 C        -1.947529        -0.001713         1.771201
 H         0.758242        -0.702606         0.611536
 H        -0.838511         2.703710        -0.003601
 H        -1.888241         1.520149        -0.757224
 H        -3.596677         2.696550         0.881192
 H        -1.437881         2.383758         4.025203
 H         0.239041         2.479195         1.745502
 H         0.361786         0.911133         2.845137
 H        -3.584554         0.973095         2.932072
 H        -1.399310        -0.751839         2.482939
 H        -2.491782        -0.521090         0.908744
