19
Iteration:  4435
 O         0.204227         0.127034         0.180824
 C        -0.840287         0.739214         1.033380
 C        -1.681774         1.761725         0.188881
 C        -2.644262         2.199217         1.293896
 O        -1.924708         3.231628         2.107472
 C        -1.433246         2.033190         3.013347
 C        -0.229156         1.424619         2.333920
 C        -2.637446         1.146912         2.422969
 C        -2.074694        -0.097865         1.736147
 H         0.938767        -0.009757         0.790820
 H        -1.212737         2.749255        -0.171524
 H        -2.087543         1.224278        -0.639907
 H        -3.539697         2.676384         1.003927
 H        -1.345724         2.308207         4.127623
 H         0.692213         2.015176         1.874507
 H         0.253415         0.558782         2.981932
 H        -3.532057         0.967458         2.977036
 H        -1.877738        -1.001877         2.362223
 H        -2.697954        -0.423653         0.928366
