19
Iteration:  1909
 O         0.190445        -0.101186         0.390703
 C        -0.815287         0.746301         1.043042
 C        -1.680336         1.745923         0.227242
 C        -2.740158         2.213480         1.254455
 O        -1.964907         3.205706         2.129207
 C        -1.437252         2.072000         2.872367
 C        -0.190867         1.711485         2.240733
 C        -2.627967         1.096952         2.359932
 C        -1.928545        -0.020041         1.797352
 H        -0.130410        -1.002534         0.193930
 H        -1.095762         2.598626        -0.106870
 H        -2.133966         1.206681        -0.599109
 H        -3.774727         2.574297         0.929801
 H        -1.324980         2.165392         3.935891
 H         0.105809         2.605724         1.723710
 H         0.688904         1.251930         2.774111
 H        -3.449699         0.893532         2.948079
 H        -1.365755        -0.827585         2.405068
 H        -2.506929        -0.646612         1.063824
