19
Iteration:  3253
 O         0.107052         0.130555         0.256831
 C        -0.834670         0.764116         1.046669
 C        -1.782789         1.717254         0.179989
 C        -2.651806         2.276032         1.274962
 O        -1.917917         3.247905         2.081072
 C        -1.488722         2.043157         2.913108
 C        -0.135444         1.352944         2.395031
 C        -2.613270         1.145196         2.341601
 C        -1.933759        -0.053624         1.773093
 H         0.750340        -0.351056         0.795218
 H        -1.260235         2.393666        -0.355864
 H        -2.317498         0.921343        -0.424295
 H        -3.597418         2.665758         0.954235
 H        -1.418950         2.296512         3.999741
 H         0.736691         2.058489         2.239772
 H         0.357091         0.451839         2.775400
 H        -3.445204         1.177108         3.123044
 H        -1.453494        -0.734163         2.498289
 H        -2.522099        -0.583059         1.010849
