19
Iteration:  3530charge 0 multiplicity 1
 O         0.159350         0.179075         0.227621
 C        -0.847700         0.737760         1.056028
 C        -1.664832         1.689080         0.147900
 C        -2.570923         2.225398         1.291222
 O        -1.912052         3.247248         2.159945
 C        -1.432980         2.005834         2.954640
 C        -0.271172         1.414540         2.283921
 C        -2.604637         1.133699         2.407007
 C        -2.005821        -0.034127         1.738527
 H         0.412615        -0.497974         0.876702
 H        -1.188553         2.462067        -0.557455
 H        -2.311806         1.095709        -0.448909
 H        -3.594028         2.522519         0.913419
 H        -1.334063         2.338066         3.964202
 H         0.547354         2.029139         1.887738
 H        -0.044723         0.554830         3.045315
 H        -3.626125         1.097282         2.782882
 H        -1.699988        -0.550378         2.730916
 H        -2.759885        -0.645982         1.171938
