19
Iteration:  2203
 O         0.140281        -0.003333         0.321808
 C        -0.804884         0.721913         1.095516
 C        -1.686495         1.663017         0.283353
 C        -2.703032         2.201342         1.282859
 O        -1.944105         3.259462         2.004381
 C        -1.512465         2.118952         2.876869
 C        -0.211118         1.586505         2.241752
 C        -2.616483         1.141763         2.470050
 C        -1.860157        -0.155570         1.815611
 H         0.060037         0.231280        -0.636309
 H        -1.081255         2.473446        -0.284436
 H        -2.102409         1.015646        -0.550255
 H        -3.733456         2.588929         1.112143
 H        -1.312954         2.445812         3.888428
 H         0.253327         2.542019         1.789461
 H         0.537250         1.109056         2.840651
 H        -3.476053         1.024760         3.082986
 H        -1.469705        -0.753699         2.643565
 H        -2.503404        -0.830410         1.229289
