19
Iteration:   728charge 0 multiplicity 1
 O         0.093270        -0.046334         0.245272
 C        -0.718695         0.705071         1.092464
 C        -1.477917         1.827150         0.245668
 C        -2.562069         2.265217         1.215143
 O        -2.096499         3.196027         2.218008
 C        -1.536014         2.166002         3.002208
 C        -0.224349         1.498234         2.372380
 C        -2.612467         1.097188         2.329373
 C        -1.976359        -0.042204         1.588844
 H         0.014889        -1.001092         0.441882
 H        -0.818047         2.647423        -0.107122
 H        -1.981529         1.252467        -0.453336
 H        -3.529727         2.573688         0.786869
 H        -1.676792         2.369406         4.047832
 H         0.505964         2.221967         2.054065
 H         0.293594         0.763231         3.028287
 H        -3.593349         1.147010         2.835448
 H        -1.595364        -0.905210         2.169024
 H        -2.700117        -0.377360         0.757164
