19
Iteration:  2518
 O         0.058316        -0.070149         0.375419
 C        -0.822104         0.727233         1.083558
 C        -1.583945         1.729462         0.228470
 C        -2.613175         2.310677         1.225222
 O        -2.023471         3.253165         2.183342
 C        -1.455332         2.079837         2.942282
 C        -0.188167         1.481064         2.242398
 C        -2.649764         1.118969         2.324198
 C        -1.919615        -0.087217         1.728261
 H         0.434333         0.322867        -0.414060
 H        -0.950222         2.647580        -0.058544
 H        -2.246435         1.379118        -0.605412
 H        -3.449041         2.822412         0.816898
 H        -1.203991         2.411639         4.041106
 H         0.496880         2.339421         2.072768
 H         0.092754         0.644126         2.766451
 H        -3.576750         0.868087         2.896199
 H        -1.432324        -0.730883         2.487672
 H        -2.369697        -0.675306         0.895701
