19
Iteration:   174charge 0 multiplicity 1
 O         0.272088         0.023456         0.467500
 C        -0.832054         0.784904         1.057926
 C        -1.566528         1.868052         0.182809
 C        -2.630042         2.308425         1.250277
 O        -1.937888         3.189307         2.181443
 C        -1.562158         1.952176         2.971593
 C        -0.266153         1.281385         2.302021
 C        -2.712965         1.192620         2.299109
 C        -1.972497         0.014241         1.614349
 H         0.139911        -0.039723        -0.520582
 H        -1.047269         2.810539        -0.193987
 H        -2.052509         1.353022        -0.676607
 H        -3.532783         2.744089         0.865220
 H        -1.531040         2.127522         4.046849
 H         0.680889         1.839436         2.293573
 H         0.050975         0.333557         2.801403
 H        -3.654962         1.010262         2.772661
 H        -1.662536        -0.701733         2.376190
 H        -2.649467        -0.417938         0.850154
