19
Iteration:  2752charge 0 multiplicity 1
 O         0.108880         0.032679         0.332669
 C        -0.776719         0.754367         1.095224
 C        -1.669419         1.639658         0.172134
 C        -2.568526         2.236903         1.241915
 O        -1.922297         3.264003         2.193351
 C        -1.474775         2.088228         3.017892
 C        -0.213695         1.422807         2.326295
 C        -2.611600         1.145336         2.305053
 C        -2.014237        -0.056321         1.681487
 H         0.231156         0.495863        -0.509030
 H        -1.051648         2.466203        -0.217802
 H        -2.189506         1.100666        -0.675331
 H        -3.588506         2.616294         0.913783
 H        -1.412787         2.364619         4.032500
 H         0.397000         2.178460         1.887986
 H         0.231152         0.744539         2.984290
 H        -3.516000         1.113497         2.903828
 H        -1.910658        -0.853701         2.440398
 H        -2.648977        -0.463932         0.876055
