19
Iteration:  2531
 O         0.118915        -0.173438         0.359720
 C        -0.794670         0.745530         1.019707
 C        -1.609851         1.791465         0.183837
 C        -2.592699         2.311298         1.285205
 O        -2.018725         3.223653         2.233743
 C        -1.545106         2.097364         2.940712
 C        -0.258956         1.508806         2.311212
 C        -2.559333         1.169688         2.335903
 C        -1.880319        -0.036436         1.683164
 H         0.065513         0.061006        -0.603596
 H        -1.034942         2.464289        -0.422729
 H        -2.116666         1.131226        -0.585377
 H        -3.578337         2.613552         0.830009
 H        -1.591503         2.208648         4.047675
 H         0.512693         2.246478         1.937518
 H         0.331122         0.983795         2.980042
 H        -3.539847         1.123766         2.991636
 H        -1.558207        -0.845449         2.340782
 H        -2.626307        -0.563451         1.006558
