19
Iteration:  3527charge 0 multiplicity 1
 O         0.147158         0.199622         0.240172
 C        -0.842450         0.727180         1.051022
 C        -1.663482         1.694469         0.155552
 C        -2.594404         2.229470         1.276273
 O        -1.891157         3.230957         2.149305
 C        -1.429316         2.029781         2.947503
 C        -0.261513         1.407516         2.295227
 C        -2.614813         1.126818         2.404013
 C        -2.016861        -0.063336         1.741404
 H         0.415426        -0.498178         0.855464
 H        -1.263465         2.397272        -0.505752
 H        -2.328036         1.130617        -0.575244
 H        -3.548355         2.640040         0.942679
 H        -1.374841         2.364187         4.037521
 H         0.613390         2.049495         1.970317
 H        -0.041024         0.635370         3.019619
 H        -3.611968         1.157871         2.901415
 H        -1.617173        -0.612367         2.637743
 H        -2.686088        -0.684866         1.150982
