19
Iteration:  3039
 O         0.092283        -0.189146         0.365380
 C        -0.746785         0.783536         1.011365
 C        -1.679436         1.746681         0.193137
 C        -2.633549         2.251069         1.296915
 O        -2.066274         3.210313         2.212114
 C        -1.414229         2.051790         2.955739
 C        -0.192502         1.555007         2.223733
 C        -2.589456         1.181563         2.372262
 C        -1.933568        -0.002081         1.665906
 H         0.575239         0.437387        -0.248560
 H        -0.990490         2.666782        -0.182966
 H        -2.233551         1.236593        -0.588997
 H        -3.693265         2.619575         0.932927
 H        -1.385250         2.196846         4.055972
 H         0.548574         2.306867         1.987257
 H         0.360229         0.674121         2.774457
 H        -3.504690         1.094077         3.031168
 H        -1.630957        -0.630468         2.546313
 H        -2.617417        -0.476721         0.953200
