19
Iteration:   669charge 0 multiplicity 1
 O         0.174027         0.043564         0.384335
 C        -0.834225         0.768651         1.053366
 C        -1.618216         1.668123         0.147848
 C        -2.555981         2.352726         1.189949
 O        -1.813886         3.207412         2.220340
 C        -1.618788         1.963615         3.032356
 C        -0.279433         1.437061         2.318104
 C        -2.708794         1.123257         2.257102
 C        -1.969151        -0.025398         1.683504
 H         0.600666         0.640224        -0.286251
 H        -0.973871         2.351201        -0.372153
 H        -2.291007         1.379678        -0.728732
 H        -3.527807         2.865284         1.047391
 H        -1.682156         1.877400         4.159726
 H         0.400259         2.299881         2.308063
 H         0.184214         0.683675         2.898039
 H        -3.638408         1.025263         2.798266
 H        -1.647852        -0.765349         2.471714
 H        -2.591818        -0.549117         0.972103
