19
Iteration:  1719
 O         0.203380         0.069673         0.369944
 C        -0.831880         0.790947         1.018466
 C        -1.737816         1.719020         0.176781
 C        -2.767911         2.262877         1.286636
 O        -1.971945         3.229060         2.059208
 C        -1.412422         2.099301         2.885605
 C        -0.226034         1.384721         2.365002
 C        -2.570793         1.165959         2.334483
 C        -1.881529        -0.043196         1.720829
 H         0.405803        -0.649533         1.008001
 H        -1.319813         2.397915        -0.561002
 H        -2.378740         1.015758        -0.297078
 H        -3.783295         2.590547         1.101160
 H        -1.391541         2.368827         3.971934
 H         0.571102         2.142660         2.026811
 H         0.256083         0.678411         3.047621
 H        -3.477581         0.935632         2.972843
 H        -1.378086        -0.764836         2.470736
 H        -2.490038        -0.756781         1.055263
