19
Iteration:  3902
 O         0.108763         0.025663         0.235283
 C        -0.854981         0.787174         1.029834
 C        -1.743436         1.723220         0.249062
 C        -2.561192         2.295107         1.349225
 O        -1.865714         3.331034         2.081445
 C        -1.514186         2.000818         2.971302
 C        -0.305445         1.357532         2.391620
 C        -2.637905         1.074720         2.344974
 C        -1.879376        -0.108085         1.706114
 H         0.666866         0.717669        -0.217842
 H        -1.041438         2.466878        -0.343414
 H        -2.204107         1.146406        -0.565980
 H        -3.538024         2.871389         1.068985
 H        -1.395598         2.356778         3.977186
 H         0.524535         2.051881         2.218649
 H         0.125772         0.618013         3.200890
 H        -3.594291         1.082629         2.987175
 H        -1.489358        -0.812249         2.391206
 H        -2.412891        -0.492031         0.833370
