19
Iteration:   797charge 0 multiplicity 1
 O         0.197955         0.043721         0.404865
 C        -0.899138         0.734580         1.059114
 C        -1.571846         1.695619         0.138510
 C        -2.646930         2.200885         1.228864
 O        -1.913422         3.217838         2.193196
 C        -1.520119         2.113994         2.977167
 C        -0.253015         1.398945         2.370639
 C        -2.602500         1.212242         2.395213
 C        -2.021118        -0.075427         1.545419
 H         0.699375         0.665874        -0.124638
 H        -1.087860         2.514875        -0.423513
 H        -2.153788         1.021120        -0.371530
 H        -3.561606         2.579533         0.820852
 H        -1.493250         2.328817         4.058039
 H         0.543266         2.125982         1.997330
 H         0.191923         0.668313         3.106790
 H        -3.442196         1.043412         3.037171
 H        -1.758317        -0.941316         2.139596
 H        -2.738350        -0.280709         0.743447
