19
Iteration:  3284charge 0 multiplicity 1
 O         0.073682         0.086950         0.183071
 C        -0.857177         0.705348         1.059697
 C        -1.593259         1.735326         0.250453
 C        -2.552284         2.184488         1.301513
 O        -1.897661         3.233953         2.128833
 C        -1.541964         2.088933         2.951680
 C        -0.240908         1.570039         2.284470
 C        -2.649564         1.092139         2.362884
 C        -1.951362        -0.094246         1.813231
 H         0.355245        -0.807914         0.475383
 H        -0.973837         2.473001        -0.091740
 H        -2.120568         1.346210        -0.668649
 H        -3.546299         2.591716         0.957749
 H        -1.318301         2.407642         4.029207
 H         0.505075         2.373761         1.959238
 H         0.454137         0.780414         2.812364
 H        -3.656228         1.110783         2.899658
 H        -1.672529        -0.937588         2.433423
 H        -2.632084        -0.568289         1.037090
