19
Iteration:   908
 O         0.229041         0.017347         0.444353
 C        -0.873435         0.789815         1.027485
 C        -1.594449         1.868383         0.178762
 C        -2.668007         2.244755         1.215483
 O        -1.966473         3.185354         2.155334
 C        -1.485132         2.036433         2.879021
 C        -0.263446         1.416392         2.280693
 C        -2.621435         1.122039         2.384435
 C        -1.943687        -0.048251         1.700562
 H        -0.184430        -0.622932        -0.191187
 H        -1.145534         2.870527        -0.051914
 H        -2.020652         1.393163        -0.805784
 H        -3.604697         2.647598         0.794416
 H        -1.363800         2.286653         3.977288
 H         0.543921         2.201446         2.229401
 H         0.128481         0.643547         3.023912
 H        -3.526195         0.858639         2.975090
 H        -1.377112        -0.729091         2.401443
 H        -2.677596        -0.661634         1.182831
