19
Iteration:  3014
 O         0.186271         0.038306         0.386801
 C        -0.827259         0.748442         1.062661
 C        -1.739718         1.774456         0.216972
 C        -2.660422         2.347395         1.257461
 O        -1.885686         3.240820         2.121567
 C        -1.470965         2.065406         2.890219
 C        -0.272150         1.396659         2.277232
 C        -2.622732         1.122162         2.382380
 C        -1.892801        -0.175001         1.742893
 H        -0.066199         0.333888        -0.523008
 H        -1.197534         2.564904        -0.336327
 H        -2.351019         1.146405        -0.398027
 H        -3.574325         2.811746         0.974973
 H        -1.396461         2.280320         3.923600
 H         0.501774         2.136115         1.908814
 H         0.196382         0.603490         2.996839
 H        -3.636695         1.049215         2.829619
 H        -1.266962        -0.696074         2.480663
 H        -2.605603        -0.767237         1.181077
