19
Iteration:  3629
 O         0.158525         0.182917         0.224603
 C        -0.853556         0.686953         1.141844
 C        -1.715486         1.655654         0.236959
 C        -2.652223         2.307615         1.217446
 O        -1.876341         3.233553         2.147184
 C        -1.449575         2.070605         2.935381
 C        -0.198534         1.397254         2.251166
 C        -2.698305         1.140260         2.411707
 C        -1.991969        -0.072943         1.720384
 H         0.580729        -0.552309         0.735061
 H        -1.006133         2.455657        -0.202728
 H        -2.230939         0.997308        -0.430444
 H        -3.545734         2.884151         0.862141
 H        -1.423716         2.283058         3.990964
 H         0.473157         2.169902         1.909169
 H         0.428055         0.689616         2.948291
 H        -3.462557         0.987625         3.133622
 H        -1.373397        -0.897522         2.271746
 H        -2.666983        -0.613289         0.974704
