19
Iteration:   883
 O         0.212330        -0.081966         0.356418
 C        -0.779900         0.715402         1.111243
 C        -1.571061         1.778341         0.227821
 C        -2.658269         2.269943         1.289265
 O        -2.067062         3.240167         2.236791
 C        -1.487147         2.084025         2.930889
 C        -0.171836         1.534525         2.239131
 C        -2.635031         1.140430         2.293116
 C        -1.949892        -0.048982         1.604560
 H        -0.105507        -0.975089         0.589427
 H        -1.136505         2.797268        -0.118435
 H        -2.092128         1.342773        -0.729576
 H        -3.558384         2.644199         0.854921
 H        -1.503077         2.202100         4.019004
 H         0.359495         2.463244         1.911695
 H         0.459228         1.020839         2.970488
 H        -3.474707         0.770581         2.852397
 H        -1.927538        -0.976152         2.196703
 H        -2.727523        -0.221211         0.739157
