19
Iteration:  3599
 O         0.062588        -0.103313         0.166778
 C        -0.789169         0.744505         1.025198
 C        -1.553149         1.829423         0.155034
 C        -2.619045         2.262536         1.255742
 O        -2.065377         3.205760         2.258314
 C        -1.459693         2.126002         2.944759
 C        -0.186898         1.513899         2.279135
 C        -2.633280         1.108204         2.390258
 C        -1.971621        -0.030378         1.780111
 H         0.713745        -0.529611         0.731400
 H        -0.940983         2.601150        -0.272103
 H        -1.956830         1.323913        -0.732726
 H        -3.580141         2.654262         0.935694
 H        -1.290466         2.288529         3.990114
 H         0.531274         2.299663         2.096297
 H         0.150304         0.736844         3.005342
 H        -3.428122         0.897518         3.088872
 H        -1.377566        -0.673780         2.375986
 H        -2.657676        -0.604233         1.136180
