19
Iteration:   471charge 0 multiplicity 1
 O         0.077601        -0.149006         0.389108
 C        -0.772266         0.673862         1.070018
 C        -1.489852         1.965199         0.190619
 C        -2.587618         2.402737         1.194438
 O        -1.998092         3.210675         2.376111
 C        -1.636166         1.948120         2.978697
 C        -0.186318         1.439863         2.205634
 C        -2.712455         1.166473         2.144185
 C        -1.924143        -0.122335         1.702008
 H         0.808824         0.352813         0.007092
 H        -0.829023         2.796535        -0.001570
 H        -1.993144         1.687703        -0.733941
 H        -3.348567         2.983873         0.646479
 H        -1.643327         1.941993         4.095741
 H         0.214865         2.453426         1.930921
 H         0.356173         0.774537         2.908909
 H        -3.699494         0.973035         2.634613
 H        -1.418901        -0.628652         2.623086
 H        -2.446695        -0.737203         0.951514
