19
Iteration:  3311
 O         0.118873        -0.115262         0.251929
 C        -0.835794         0.712379         1.027349
 C        -1.574284         1.804376         0.242026
 C        -2.686981         2.321402         1.250961
 O        -2.115422         3.210929         2.295356
 C        -1.432995         2.072368         2.864890
 C        -0.165525         1.497692         2.225697
 C        -2.607532         1.160626         2.313956
 C        -1.902602        -0.005169         1.768571
 H         0.464087        -0.850595         0.820859
 H        -0.918703         2.643436        -0.303336
 H        -2.098533         1.399012        -0.681600
 H        -3.581838         2.799853         0.919370
 H        -1.173985         2.295994         3.879520
 H         0.577723         2.197001         1.857428
 H         0.244559         0.746361         2.891291
 H        -3.411958         1.129991         2.994101
 H        -1.542461        -0.777103         2.498375
 H        -2.579520        -0.595087         1.169428
