19
Iteration:  3329
 O         0.095325        -0.175668         0.276435
 C        -0.695673         0.755909         0.951683
 C        -1.658498         1.825362         0.239744
 C        -2.623474         2.267792         1.330474
 O        -2.050020         3.266011         2.226869
 C        -1.506426         2.078799         2.976626
 C        -0.134440         1.533273         2.172838
 C        -2.640256         1.163366         2.367187
 C        -1.996984        -0.027795         1.679720
 H         0.618566        -0.634908         0.994134
 H        -1.186175         2.632094        -0.118537
 H        -2.072356         1.250324        -0.612649
 H        -3.557294         2.524876         0.823511
 H        -1.391386         2.059529         4.102476
 H         0.662427         2.362856         2.049951
 H         0.481158         0.941591         2.948737
 H        -3.590104         0.996942         2.982205
 H        -1.670610        -0.798111         2.422265
 H        -2.382954        -0.655427         0.855680
