19
Iteration:  2865
 O         0.127696         0.171940         0.283702
 C        -0.828390         0.818530         1.038405
 C        -1.706386         1.750299         0.136027
 C        -2.691481         2.217446         1.229352
 O        -1.852324         3.165370         2.136924
 C        -1.471104         2.021435         2.890426
 C        -0.216857         1.384057         2.330263
 C        -2.687382         1.156842         2.384033
 C        -1.900762        -0.039524         1.840758
 H         0.226320        -0.752389         0.627602
 H        -1.011793         2.539674        -0.424457
 H        -2.041822         1.119243        -0.689705
 H        -3.769517         2.744285         0.954785
 H        -1.120346         2.293079         3.951048
 H         0.580424         2.040091         2.132556
 H        -0.012597         0.539889         3.016076
 H        -3.528169         1.200972         3.078033
 H        -1.577031        -0.950531         2.434424
 H        -2.547483        -0.587434         1.118877
