19
Iteration:   316
 O         0.177298         0.056949         0.253539
 C        -0.843947         0.683319         1.001810
 C        -1.475181         1.927977         0.221509
 C        -2.595154         2.352724         1.239111
 O        -1.973085         3.213548         2.228398
 C        -1.568793         2.039898         2.938479
 C        -0.350966         1.376060         2.327146
 C        -2.682102         1.101174         2.296616
 C        -1.929004        -0.121886         1.711915
 H         0.452592        -0.741416         0.778396
 H        -0.765221         2.694860        -0.054196
 H        -1.930304         1.482723        -0.604448
 H        -3.537253         2.788290         0.918854
 H        -1.329730         2.395482         3.952303
 H         0.591664         1.916395         2.303945
 H         0.080040         0.620624         2.962197
 H        -3.734129         0.972493         2.667189
 H        -1.558330        -0.749499         2.561121
 H        -2.623580        -0.730517         1.083371
