19
Iteration:  1388
 O         0.124577        -0.102785         0.378671
 C        -0.779201         0.661351         1.137359
 C        -1.504476         1.805628         0.231069
 C        -2.576245         2.245585         1.195218
 O        -2.050442         3.196359         2.187466
 C        -1.533442         2.058368         2.989293
 C        -0.198976         1.618090         2.298367
 C        -2.655772         1.135529         2.341995
 C        -1.960663        -0.035755         1.612533
 H        -0.254491        -0.233930        -0.495403
 H        -1.106173         2.762931        -0.019992
 H        -1.825040         1.078215        -0.660198
 H        -3.490849         2.571736         0.795603
 H        -1.493694         2.322272         4.038020
 H         0.352271         2.445679         1.928058
 H         0.460855         1.118636         3.007914
 H        -3.706205         1.084462         2.788168
 H        -1.499790        -0.784691         2.285743
 H        -2.543002        -0.450970         0.739089
