19
Iteration:  1404charge 0 multiplicity 1
 O         0.107038        -0.144095         0.398270
 C        -0.714723         0.832956         1.062976
 C        -1.503920         1.773975         0.189924
 C        -2.590738         2.259205         1.267300
 O        -1.991792         3.196961         2.197066
 C        -1.608693         2.016744         2.962401
 C        -0.271466         1.619037         2.277087
 C        -2.644410         1.106209         2.282701
 C        -1.944125        -0.086083         1.726990
 H        -0.063763        -0.051123        -0.549514
 H        -0.617217         2.375125        -0.219702
 H        -2.116657         1.443803        -0.541798
 H        -3.452644         2.776378         0.692544
 H        -1.579790         2.260213         4.055923
 H         0.103634         2.662426         1.913586
 H         0.506417         0.988589         2.856001
 H        -3.495400         0.922419         2.866771
 H        -1.677876        -0.938095         2.425215
 H        -2.539604        -0.275407         0.878880
