19
Iteration:  1636
 O         0.125406        -0.183429         0.424610
 C        -0.803673         0.820307         0.987274
 C        -1.624230         1.808664         0.129227
 C        -2.634982         2.212810         1.246382
 O        -2.055207         3.225243         2.103411
 C        -1.484273         2.091168         2.982448
 C        -0.229116         1.551998         2.327448
 C        -2.581545         1.118739         2.400386
 C        -1.890649        -0.053658         1.725188
 H         0.432504         0.181643        -0.422220
 H        -1.156367         2.823845        -0.113948
 H        -2.120414         1.450626        -0.807948
 H        -3.643151         2.560740         0.827644
 H        -1.599577         2.322656         4.061875
 H         0.481514         2.354429         2.085898
 H         0.295697         0.655516         2.820339
 H        -3.402828         0.976740         3.148941
 H        -1.351674        -0.676761         2.403833
 H        -2.506366        -0.643139         1.096770
