19
Iteration:  2015
 O         0.171347        -0.095375         0.305126
 C        -0.736849         0.694610         0.961722
 C        -1.691698         1.646962         0.183800
 C        -2.630171         2.265428         1.258415
 O        -2.160617         3.291617         2.240739
 C        -1.482542         2.165772         2.880430
 C        -0.176290         1.528172         2.141567
 C        -2.606034         1.164864         2.398166
 C        -1.924860        -0.070801         1.865853
 H         1.036571         0.015992         0.738957
 H        -1.273967         2.503325        -0.591803
 H        -2.370928         1.083358        -0.497720
 H        -3.577799         2.573971         0.840492
 H        -1.005940         2.409168         3.892950
 H         0.509847         2.465721         1.902080
 H         0.475327         0.806479         2.752154
 H        -3.487510         1.033490         3.037945
 H        -1.417095        -0.640147         2.676772
 H        -2.515485        -0.849095         1.357809
