19
Iteration:  4771
 O         0.109154        -0.195277         0.220161
 C        -0.781231         0.731809         1.035922
 C        -1.585182         1.849778         0.226068
 C        -2.671579         2.282750         1.236955
 O        -2.018441         3.257598         2.330787
 C        -1.557453         2.018950         2.962799
 C        -0.211230         1.521591         2.299751
 C        -2.610430         1.178576         2.325253
 C        -1.854696        -0.072237         1.711966
 H         0.249379         0.113062        -0.689763
 H        -1.151355         2.908386        -0.033177
 H        -2.131559         1.301625        -0.568921
 H        -3.537859         2.774208         0.809811
 H        -1.441468         2.340419         4.010372
 H         0.591018         2.217663         1.983001
 H         0.446781         0.886037         2.959884
 H        -3.490764         0.768067         2.721440
 H        -1.530936        -0.720435         2.531830
 H        -2.621489        -0.445779         1.008482
