19
Iteration:   933
 O         0.248820         0.072940         0.283814
 C        -0.851746         0.714285         1.101601
 C        -1.618742         1.665664         0.253926
 C        -2.577454         2.308519         1.214356
 O        -1.937216         3.211276         2.154549
 C        -1.542351         2.018073         2.949920
 C        -0.233060         1.489077         2.338556
 C        -2.683556         1.187866         2.322237
 C        -2.009972        -0.115879         1.721595
 H         0.087405         0.421838        -0.624760
 H        -1.027433         2.441330        -0.220262
 H        -2.215852         1.058685        -0.419390
 H        -3.545097         2.672203         0.735962
 H        -1.496090         2.323094         4.021853
 H         0.516381         2.286919         2.276870
 H         0.317512         0.749597         3.065702
 H        -3.721112         1.154579         2.788397
 H        -1.589474        -0.761381         2.536389
 H        -2.530378        -0.822937         1.126259
