19
Iteration:  2503
 O         0.093034        -0.012692         0.304725
 C        -0.832097         0.747784         1.058864
 C        -1.604713         1.807163         0.261910
 C        -2.671005         2.252960         1.265223
 O        -1.948804         3.192045         2.120683
 C        -1.436304         2.041932         2.874941
 C        -0.177714         1.458495         2.256925
 C        -2.695848         1.149996         2.326633
 C        -1.992716        -0.099645         1.805529
 H         0.783359         0.686995         0.215314
 H        -0.890464         2.627301        -0.013760
 H        -1.835572         1.255733        -0.648145
 H        -3.626606         2.573675         0.818490
 H        -1.452019         2.238717         3.951471
 H         0.601455         2.132452         1.905329
 H         0.428489         0.859205         3.068745
 H        -3.548306         1.124512         2.948512
 H        -1.631431        -0.677258         2.673880
 H        -2.645153        -0.718189         1.194444
