19
Iteration:  4566charge 0 multiplicity 1
 O         0.033358         0.189976         0.160300
 C        -0.810060         0.703321         1.081569
 C        -1.672180         1.724507         0.196923
 C        -2.550519         2.269415         1.232930
 O        -1.944278         3.160137         2.198921
 C        -1.475059         2.013527         2.987024
 C        -0.245551         1.437387         2.336329
 C        -2.588862         1.181183         2.312631
 C        -1.960372        -0.080787         1.727797
 H         0.814802        -0.241727         0.527564
 H        -0.979858         2.438123        -0.348103
 H        -2.140376         1.071119        -0.532122
 H        -3.479602         2.708881         0.947768
 H        -1.382300         2.318742         4.112133
 H         0.742102         2.073574         2.175285
 H         0.036268         0.657713         3.010659
 H        -3.488696         0.981631         2.897128
 H        -1.679222        -0.504128         2.790880
 H        -2.668397        -0.798961         1.283661
