19
Iteration:  4343
 O         0.078277        -0.051797         0.256587
 C        -0.817397         0.707990         1.056474
 C        -1.558087         1.848526         0.294795
 C        -2.664292         2.306380         1.222024
 O        -2.131599         3.197883         2.244527
 C        -1.430240         2.065898         2.884451
 C        -0.156309         1.420665         2.267230
 C        -2.542117         1.137674         2.412905
 C        -1.926743        -0.068448         1.705920
 H         0.236478         0.405885        -0.600002
 H        -0.960248         2.681683         0.043516
 H        -1.919181         1.339005        -0.657419
 H        -3.544723         2.718791         0.665399
 H        -1.331991         2.267200         3.950407
 H         0.730025         2.058023         2.037841
 H         0.174694         0.766122         3.024880
 H        -3.464692         1.042579         3.085995
 H        -1.544391        -0.882860         2.339891
 H        -2.812477        -0.480183         1.096239
