19
Iteration:  4432charge 0 multiplicity 1
 O         0.224320         0.119784         0.188533
 C        -0.847648         0.710875         1.035111
 C        -1.696851         1.783620         0.185450
 C        -2.631675         2.219933         1.335391
 O        -1.925354         3.235184         2.110195
 C        -1.445040         2.028032         2.975138
 C        -0.220439         1.423245         2.334282
 C        -2.648981         1.150900         2.420148
 C        -2.048876        -0.101724         1.743143
 H         1.006991         0.019142         0.775274
 H        -1.182632         2.673247        -0.230673
 H        -2.090667         1.188546        -0.659205
 H        -3.559548         2.705385         1.051041
 H        -1.417931         2.291011         4.063952
 H         0.590079         2.007748         1.879527
 H         0.143373         0.620769         2.833390
 H        -3.525264         0.928586         3.028938
 H        -1.940022        -1.016704         2.369873
 H        -2.758247        -0.388612         0.884313
