19
Iteration:  3149
 O         0.170843         0.095232         0.215985
 C        -0.843354         0.716306         1.043911
 C        -1.647032         1.680032         0.226624
 C        -2.698697         2.273435         1.276101
 O        -1.956999         3.178978         2.131094
 C        -1.441594         2.051521         2.903209
 C        -0.158112         1.514649         2.296603
 C        -2.660688         1.172159         2.414795
 C        -1.984556        -0.067854         1.801149
 H         0.260653        -0.744245         0.660578
 H        -0.979665         2.513367        -0.253156
 H        -2.095200         1.288394        -0.625713
 H        -3.559449         2.834226         0.753471
 H        -1.194509         2.281267         3.942405
 H         0.411823         2.268302         1.867803
 H         0.241516         0.693874         2.920823
 H        -3.479008         1.153058         3.101128
 H        -1.631423        -0.818990         2.537597
 H        -2.614339        -0.652111         1.113698
