19
Iteration:  3444charge 0 multiplicity 1
 O         0.153014        -0.159518         0.231161
 C        -0.778867         0.722570         0.985265
 C        -1.589771         1.801003         0.280301
 C        -2.673434         2.271522         1.258337
 O        -2.018681         3.266884         2.295818
 C        -1.484782         2.041569         2.913644
 C        -0.171649         1.590678         2.148107
 C        -2.681916         1.105667         2.336775
 C        -1.997394        -0.067361         1.730783
 H         0.422173        -0.599784         1.083395
 H        -0.852300         2.760787         0.057339
 H        -2.118676         1.411814        -0.605210
 H        -3.583723         2.873364         1.030895
 H        -1.201926         2.232792         3.931691
 H         0.525947         2.394820         1.927201
 H         0.375278         1.042069         2.984536
 H        -3.559822         1.303960         2.949737
 H        -1.637208        -0.721853         2.576425
 H        -2.417144        -0.726737         0.911253
