19
Iteration:  1508charge 0 multiplicity 1
 O         0.214583        -0.071242         0.271097
 C        -0.810628         0.688309         1.022061
 C        -1.583357         1.808575         0.145638
 C        -2.598100         2.326006         1.203219
 O        -2.105126         3.273481         2.281845
 C        -1.546935         2.115762         2.985098
 C        -0.254071         1.486653         2.213889
 C        -2.589035         1.182675         2.258065
 C        -1.914410        -0.150686         1.828128
 H         0.612327        -0.698727         0.921766
 H        -0.912846         2.517286        -0.198520
 H        -2.154284         1.360758        -0.716267
 H        -3.538524         2.687561         0.841733
 H        -1.494742         2.125035         4.067452
 H         0.452018         2.188011         1.908888
 H         0.258012         0.881013         2.951059
 H        -3.592247         1.011278         2.742414
 H        -1.741422        -0.672877         2.790252
 H        -2.509329        -0.834486         1.091941
