19
Iteration:  1654charge 0 multiplicity 1
 O        -0.007710        -0.173408         0.344196
 C        -0.736606         0.782034         1.057077
 C        -1.614797         1.814356         0.175156
 C        -2.681558         2.301370         1.208629
 O        -2.079586         3.198958         2.211251
 C        -1.534697         2.131748         2.869567
 C        -0.219895         1.509989         2.292605
 C        -2.573833         1.077200         2.323202
 C        -1.749111        -0.031906         1.802048
 H         0.825990         0.285835         0.108556
 H        -0.955814         2.521962        -0.490427
 H        -2.179656         1.179860        -0.536119
 H        -3.591117         2.702280         0.766385
 H        -1.360917         2.406365         3.959986
 H         0.639988         2.233340         2.177840
 H         0.109716         0.905496         3.065960
 H        -3.585355         0.994260         2.759030
 H        -1.290887        -0.694245         2.636456
 H        -2.326712        -0.684938         1.053132
