19
Iteration:  4147charge 0 multiplicity 1
 O         0.128567        -0.013209         0.226826
 C        -0.871428         0.748936         1.073608
 C        -1.598073         1.862764         0.242689
 C        -2.617756         2.274665         1.295568
 O        -1.904994         3.216385         2.141004
 C        -1.494331         2.019973         2.969282
 C        -0.267805         1.391704         2.380405
 C        -2.618494         1.075487         2.369250
 C        -1.948646        -0.043781         1.694500
 H         0.219650         0.538878        -0.566336
 H        -0.980831         2.635431        -0.100617
 H        -1.943118         1.228287        -0.638684
 H        -3.523138         2.731497         0.913103
 H        -1.432602         2.347827         3.992756
 H         0.302287         2.398467         2.264311
 H         0.282099         0.567878         2.915245
 H        -3.555992         0.979251         2.959478
 H        -1.689016        -0.943698         2.253802
 H        -2.681902        -0.414000         0.946548
