19
Iteration:  3866
 O         0.078631        -0.056446         0.313134
 C        -0.826443         0.750181         1.068071
 C        -1.602506         1.806574         0.190099
 C        -2.633538         2.283268         1.292591
 O        -2.066776         3.192027         2.217299
 C        -1.392867         1.940882         2.902923
 C        -0.123963         1.460680         2.200748
 C        -2.677658         1.180680         2.383823
 C        -1.979621         0.001766         1.700008
 H         1.014630         0.123895         0.514777
 H        -0.874080         2.592816         0.037726
 H        -2.060277         1.396029        -0.678480
 H        -3.630466         2.637904         1.045048
 H        -1.294287         2.140021         4.010371
 H         0.226209         2.461409         1.917833
 H         0.672965         0.755986         2.692477
 H        -3.577440         1.135261         2.917106
 H        -1.662679        -0.773697         2.360523
 H        -2.600592        -0.450316         0.961552
