19
Iteration:  3669charge 0 multiplicity 1
 O         0.138408         0.051277         0.236975
 C        -0.849414         0.743085         1.004110
 C        -1.687317         1.741823         0.211705
 C        -2.711330         2.290017         1.294477
 O        -1.868427         3.221821         2.131730
 C        -1.504766         2.060088         2.928809
 C        -0.214837         1.423866         2.338617
 C        -2.641401         1.138089         2.431541
 C        -1.913109        -0.068233         1.728435
 H         0.783180        -0.422335         0.769589
 H        -1.156414         2.544876        -0.360056
 H        -2.169663         1.232282        -0.704828
 H        -3.585236         2.754039         0.831827
 H        -1.386213         2.377200         4.040183
 H         0.417809         2.247461         1.968462
 H         0.253348         0.658619         2.891527
 H        -3.581486         0.889780         3.008195
 H        -1.494217        -0.721650         2.469476
 H        -2.561494        -0.588278         1.055308
