19
Iteration:   836charge 0 multiplicity 1
 O         0.101108        -0.007426         0.245685
 C        -0.755018         0.732409         1.085931
 C        -1.589332         1.836144         0.245578
 C        -2.663468         2.321688         1.169583
 O        -1.919678         3.215342         2.189361
 C        -1.569264         2.034980         2.918877
 C        -0.264620         1.417633         2.316211
 C        -2.702056         1.139033         2.294404
 C        -1.903201        -0.095035         1.759139
 H         0.943569         0.024803         0.765744
 H        -0.846041         2.565904        -0.118894
 H        -1.975430         1.421847        -0.736592
 H        -3.650658         2.708039         0.802637
 H        -1.578325         2.059329         4.011320
 H         0.391109         2.222574         2.102303
 H         0.245174         0.755678         2.998588
 H        -3.639254         1.038684         2.907304
 H        -1.373401        -0.536457         2.620680
 H        -2.487766        -0.946276         1.326756
