19
Iteration:   482charge 0 multiplicity 1
 O         0.085934        -0.231050         0.313886
 C        -0.780265         0.760300         1.035119
 C        -1.488212         1.889919         0.232162
 C        -2.514908         2.418297         1.182931
 O        -2.000816         3.193607         2.378250
 C        -1.673121         1.957470         2.965063
 C        -0.203799         1.552740         2.301714
 C        -2.742034         1.098412         2.212489
 C        -1.950266        -0.035147         1.649327
 H         0.963782         0.231595         0.255668
 H        -0.775231         2.592519        -0.131786
 H        -2.015735         1.473221        -0.632470
 H        -3.398740         2.977047         0.893503
 H        -1.588601         1.976802         4.072970
 H         0.374495         2.455204         1.963032
 H         0.623610         0.996090         2.748073
 H        -3.766399         0.994689         2.614749
 H        -1.576345        -0.821487         2.423473
 H        -2.407408        -0.707142         0.905051
