19
Iteration:  2576
 O         0.141390         0.099081         0.399562
 C        -0.901180         0.715997         1.064078
 C        -1.552778         1.817562         0.265846
 C        -2.622581         2.269092         1.201659
 O        -1.948912         3.279364         2.185224
 C        -1.441332         1.960568         2.869201
 C        -0.258332         1.441977         2.230248
 C        -2.555504         1.167532         2.308683
 C        -2.028944        -0.120475         1.746276
 H        -0.099561        -0.809248         0.107666
 H        -0.910892         2.550226        -0.084652
 H        -2.156777         1.377799        -0.583618
 H        -3.698985         2.566357         0.924383
 H        -1.426541         2.192197         3.894672
 H         0.572453         2.100029         1.948922
 H         0.179295         0.846310         2.915474
 H        -3.484789         0.838750         2.900534
 H        -1.469037        -0.724176         2.454141
 H        -2.680024        -0.727099         1.061532
