19
Iteration:  3788
 O         0.134503         0.179585         0.190239
 C        -0.863894         0.657423         1.098845
 C        -1.654180         1.772850         0.219097
 C        -2.640931         2.268650         1.299061
 O        -1.846232         3.242970         2.030149
 C        -1.485603         2.056874         2.998695
 C        -0.229998         1.441811         2.303280
 C        -2.647320         1.137079         2.389306
 C        -1.978669        -0.192587         1.741519
 H         0.581102        -0.557659         0.670003
 H        -0.983670         2.477593        -0.185865
 H        -2.124640         1.219404        -0.625915
 H        -3.588128         2.737789         1.207144
 H        -1.566159         2.333545         4.100317
 H         0.434343         2.312259         1.972956
 H         0.321368         0.734836         3.052393
 H        -3.499990         0.985308         3.055868
 H        -1.802026        -0.851540         2.568547
 H        -2.800033        -0.567980         1.172600
