19
Iteration:  3996charge 0 multiplicity 1
 O         0.099410        -0.022714         0.226176
 C        -0.787087         0.774398         1.045289
 C        -1.588295         1.791814         0.208968
 C        -2.629383         2.304368         1.285898
 O        -1.995609         3.152557         2.269320
 C        -1.488995         2.019393         2.963029
 C        -0.148009         1.425950         2.268923
 C        -2.632943         1.177129         2.331488
 C        -1.979114         0.037749         1.680940
 H         0.051702        -0.909138         0.600679
 H        -1.117255         2.723187        -0.110345
 H        -2.139110         1.352727        -0.670053
 H        -3.607080         2.633132         0.944524
 H        -1.615276         2.137102         4.097325
 H         0.458237         2.244917         1.921698
 H         0.506775         0.832531         2.882349
 H        -3.532553         0.923038         2.891927
 H        -1.392988        -0.719974         2.332132
 H        -2.652652        -0.379426         0.891888
