19
Iteration:   989
 O         0.104419        -0.177087         0.428281
 C        -0.793755         0.804003         1.021043
 C        -1.581252         1.949037         0.140004
 C        -2.672798         2.289151         1.299415
 O        -2.049868         3.186596         2.175606
 C        -1.545386         2.084070         2.858723
 C        -0.248757         1.461605         2.182454
 C        -2.593371         1.104633         2.406430
 C        -1.875874        -0.052914         1.715831
 H         0.977590         0.260282         0.520962
 H        -0.883377         2.809541        -0.016705
 H        -1.941428         1.485102        -0.776006
 H        -3.748542         2.460391         0.951447
 H        -1.340560         2.296560         3.934934
 H         0.610312         2.192594         2.082343
 H         0.031123         0.495522         2.839209
 H        -3.462575         0.754564         3.042435
 H        -1.437525        -0.708052         2.528410
 H        -2.379889        -0.594584         0.868683
