19
Iteration:  4089
 O         0.106400        -0.143303         0.345797
 C        -0.866543         0.759991         1.012699
 C        -1.579436         1.834876         0.229673
 C        -2.615196         2.293512         1.332542
 O        -1.954367         3.184326         2.304716
 C        -1.482346         2.009742         2.948637
 C        -0.212831         1.575190         2.219706
 C        -2.643047         1.138722         2.299055
 C        -2.021029        -0.097312         1.625760
 H         0.719941         0.382796        -0.217623
 H        -0.931958         2.679077        -0.048622
 H        -1.961979         1.353534        -0.665930
 H        -3.564435         2.871226         1.102863
 H        -1.301812         2.081623         3.999080
 H         0.468887         2.439875         1.953616
 H         0.458757         0.811220         2.774950
 H        -3.538005         1.114482         2.873059
 H        -1.534655        -0.872799         2.163005
 H        -2.635287        -0.421458         0.774866
