19
Iteration:  2223charge 0 multiplicity 1
 O         0.238111         0.056653         0.380887
 C        -0.836917         0.767945         1.028755
 C        -1.836968         1.685495         0.164122
 C        -2.744135         2.172247         1.285693
 O        -1.937031         3.155505         2.035883
 C        -1.437128         2.106588         2.904362
 C        -0.170139         1.556077         2.259066
 C        -2.596006         1.165951         2.420751
 C        -1.871074        -0.037886         1.848446
 H        -0.313199        -0.504155        -0.188564
 H        -1.373887         2.474115        -0.503592
 H        -2.368943         1.068182        -0.506421
 H        -3.631289         2.565109         0.831901
 H        -1.426973         2.423375         3.988127
 H         0.760994         2.276078         2.116737
 H         0.313695         0.795929         2.920879
 H        -3.381303         1.056885         3.073980
 H        -1.466445        -0.655626         2.667787
 H        -2.441851        -0.605405         1.121638
