19
Iteration:  3724charge 0 multiplicity 1
 O         0.051687        -0.129652         0.198386
 C        -0.804215         0.744999         1.030926
 C        -1.544300         1.812669         0.242905
 C        -2.632770         2.280419         1.347498
 O        -1.977846         3.171362         2.192928
 C        -1.503712         2.064237         2.937602
 C        -0.286304         1.647518         2.225895
 C        -2.657818         1.156414         2.412212
 C        -1.885032        -0.072120         1.732748
 H         0.633165        -0.724382         0.689173
 H        -0.868591         2.668557         0.102383
 H        -1.966669         1.358974        -0.683127
 H        -3.460081         2.628957         0.740589
 H        -1.268002         2.189167         4.052609
 H         0.334952         2.455238         1.801066
 H         0.265433         0.874888         2.730916
 H        -3.608617         0.916169         2.871783
 H        -1.489363        -0.760077         2.418207
 H        -2.418036        -0.601750         0.981419
