19
Iteration:  3454
 O         0.126472        -0.140694         0.259473
 C        -0.813617         0.694320         1.024263
 C        -1.569606         1.810629         0.233677
 C        -2.602381         2.333003         1.332477
 O        -2.098951         3.285144         2.328094
 C        -1.483870         2.070122         2.876460
 C        -0.225815         1.493135         2.172455
 C        -2.620842         1.198087         2.316549
 C        -1.921187        -0.094322         1.697664
 H         0.698072        -0.687243         0.860060
 H        -0.934737         2.683319        -0.253965
 H        -2.120350         1.454882        -0.628349
 H        -3.509474         2.594059         0.749754
 H        -1.447866         2.212601         3.934475
 H         0.392810         2.293156         1.719179
 H         0.507241         0.824507         2.746150
 H        -3.493790         1.014228         2.948712
 H        -1.470248        -0.677203         2.576752
 H        -2.647739        -0.798330         1.228756
