19
Iteration:  4434
 O         0.211787         0.124440         0.182703
 C        -0.843208         0.729847         1.033783
 C        -1.687616         1.768667         0.186608
 C        -2.640496         2.205154         1.307486
 O        -1.925337         3.234039         2.107469
 C        -1.436516         2.030215         3.000547
 C        -0.227357         1.424512         2.336127
 C        -2.642642         1.148542         2.422696
 C        -2.066674        -0.099246         1.739418
 H         0.959837         0.001793         0.785770
 H        -1.201986         2.737270        -0.195787
 H        -2.081978         1.214771        -0.640503
 H        -3.530043         2.683253         1.026910
 H        -1.368904         2.305329         4.121391
 H         0.672432         2.012789         1.862083
 H         0.217113         0.578446         2.929862
 H        -3.522278         0.951163         2.987665
 H        -1.903143        -1.014444         2.367376
 H        -2.716705        -0.411296         0.911281
