19
Iteration:  4205charge 0 multiplicity 1
 O         0.091590        -0.101813         0.194738
 C        -0.816668         0.759284         0.980320
 C        -1.639554         1.798226         0.212939
 C        -2.571818         2.265464         1.291179
 O        -1.922932         3.233663         2.326792
 C        -1.524581         2.054663         2.988958
 C        -0.270302         1.506678         2.250062
 C        -2.659491         1.122049         2.321794
 C        -1.938761        -0.081082         1.678222
 H         0.911926         0.314385         0.505010
 H        -0.963753         2.667161        -0.111466
 H        -2.178489         1.376342        -0.635204
 H        -3.392872         2.743613         0.813285
 H        -1.566653         2.244186         4.111184
 H         0.413677         2.353983         2.159184
 H         0.302956         0.742929         2.763852
 H        -3.553848         0.981904         2.951543
 H        -1.575536        -0.655425         2.575824
 H        -2.472939        -0.705459         0.963288
