19
Iteration:  2454charge 0 multiplicity 1
 O         0.153164         0.037671         0.365591
 C        -0.797199         0.740052         1.116396
 C        -1.759678         1.747744         0.193431
 C        -2.647958         2.316698         1.200735
 O        -1.994521         3.218287         2.173717
 C        -1.450231         2.043891         2.896485
 C        -0.212611         1.466414         2.280965
 C        -2.546385         1.159817         2.331312
 C        -1.899801        -0.068339         1.708860
 H        -0.103320        -0.891671         0.290852
 H        -1.172842         2.449106        -0.409930
 H        -2.296133         1.011055        -0.425645
 H        -3.638335         2.703256         0.850908
 H        -1.360185         2.225084         3.987320
 H         0.592771         2.302513         2.087709
 H         0.390432         0.734328         2.854293
 H        -3.475481         1.029185         2.997638
 H        -1.594636        -0.661708         2.582668
 H        -2.537574        -0.581101         0.942342
