19
Iteration:  1131
 O         0.193415        -0.122837         0.411755
 C        -0.810304         0.738786         1.053959
 C        -1.555855         1.855442         0.197528
 C        -2.661481         2.380103         1.281831
 O        -2.067946         3.226638         2.252009
 C        -1.548013         1.975302         2.884311
 C        -0.200076         1.498114         2.198731
 C        -2.665385         1.137438         2.209617
 C        -1.869458        -0.029688         1.739353
 H         0.031359        -0.969955        -0.020065
 H        -0.920312         2.759387        -0.047775
 H        -1.991910         1.172507        -0.570463
 H        -3.660466         2.861941         0.933439
 H        -1.362963         2.047794         3.986658
 H         0.359510         2.398190         1.950372
 H         0.228356         0.906006         2.939853
 H        -3.606678         0.862150         2.713074
 H        -1.365935        -0.364619         2.654964
 H        -2.418895        -0.716204         1.183151
