19
Iteration:  3327charge 0 multiplicity 1
 O         0.103208        -0.180991         0.269534
 C        -0.683608         0.764284         0.970148
 C        -1.662787         1.817796         0.223916
 C        -2.615567         2.269783         1.344030
 O        -2.063224         3.256746         2.242505
 C        -1.497834         2.088118         2.949017
 C        -0.126961         1.525592         2.156296
 C        -2.649519         1.175348         2.363792
 C        -1.997260        -0.029125         1.695492
 H         0.570892        -0.631794         0.985790
 H        -1.130082         2.695702        -0.032081
 H        -2.137198         1.266828        -0.581738
 H        -3.585626         2.494770         0.776627
 H        -1.430161         2.058085         4.084794
 H         0.679777         2.287036         2.096088
 H         0.444811         0.940685         2.934984
 H        -3.619567         0.968699         2.938991
 H        -1.680632        -0.712968         2.468592
 H        -2.381194        -0.635535         0.822737
