19
Iteration:  2804charge 0 multiplicity 1
 O        -0.002735        -0.139983         0.350471
 C        -0.843659         0.728700         0.968558
 C        -1.530489         1.859795         0.233300
 C        -2.630718         2.346467         1.221217
 O        -2.114287         3.195369         2.284362
 C        -1.430054         2.055950         2.927457
 C        -0.160589         1.472092         2.183170
 C        -2.581577         1.165948         2.257739
 C        -1.907975        -0.109422         1.785024
 H         0.843906         0.354776         0.468175
 H        -0.890423         2.589486        -0.115150
 H        -2.184058         1.434219        -0.568210
 H        -3.484216         2.635470         0.765883
 H        -1.360867         2.293585         3.988086
 H         0.646282         2.274324         1.839335
 H         0.260966         0.774840         2.956261
 H        -3.442805         1.116198         3.001502
 H        -1.393944        -0.586095         2.579328
 H        -2.540843        -0.732521         1.134547
