19
Iteration:  2342charge 0 multiplicity 1
 O         0.208416         0.168399         0.354034
 C        -0.850199         0.701256         1.100657
 C        -1.699181         1.661075         0.233580
 C        -2.634931         2.178237         1.233342
 O        -1.967805         3.183157         2.114294
 C        -1.375109         2.101554         2.870711
 C        -0.204676         1.539654         2.223501
 C        -2.654126         1.187123         2.396782
 C        -2.000726        -0.121878         1.807964
 H        -0.030935        -0.709394         0.010074
 H        -1.143239         2.495568        -0.351588
 H        -2.128890         1.004130        -0.516328
 H        -3.516055         2.622280         0.899231
 H        -1.268417         2.264692         4.024920
 H         0.476685         2.379909         1.757909
 H         0.527608         0.944942         2.802215
 H        -3.551995         1.176690         2.887414
 H        -1.799413        -0.950588         2.559451
 H        -2.809559        -0.527924         1.162923
