19
Iteration:  1491
 O         0.085002        -0.011624         0.309000
 C        -0.794856         0.765321         1.080984
 C        -1.596557         1.755240         0.227139
 C        -2.648607         2.288068         1.201641
 O        -1.965492         3.189166         2.186125
 C        -1.539833         1.969416         2.853289
 C        -0.218685         1.511075         2.340526
 C        -2.697555         1.156978         2.262455
 C        -1.897730        -0.034916         1.759556
 H         0.906678        -0.270543         0.766531
 H        -0.934530         2.595321        -0.249198
 H        -2.072472         1.209620        -0.597156
 H        -3.524491         2.781379         0.707667
 H        -1.529507         2.160472         3.941558
 H         0.475116         2.423270         2.171496
 H         0.289080         0.787850         3.057068
 H        -3.560110         1.168215         2.898441
 H        -1.296757        -0.537606         2.535965
 H        -2.374350        -0.811638         1.258026
