19
Iteration:  4627charge 0 multiplicity 1
 O         0.045541        -0.027766         0.356878
 C        -0.823460         0.775135         1.035742
 C        -1.606923         1.833724         0.132479
 C        -2.613295         2.301258         1.268134
 O        -2.069649         3.215081         2.294960
 C        -1.488206         2.036677         2.942284
 C        -0.152025         1.496038         2.158731
 C        -2.540735         1.093080         2.448162
 C        -1.914918        -0.074941         1.581418
 H         0.370475        -0.702097         0.972561
 H        -1.288825         2.882446        -0.243741
 H        -2.266461         1.297361        -0.608392
 H        -3.591801         2.703513         0.812136
 H        -1.309047         2.084086         3.977811
 H         0.742088         2.052924         1.995970
 H         0.371953         0.684324         2.832090
 H        -3.403519         1.122793         3.107667
 H        -1.386851        -0.792156         2.198931
 H        -2.609427        -0.575300         0.848184
