19
Iteration:   551
 O         0.192605         0.115999         0.241084
 C        -0.827520         0.730470         1.071181
 C        -1.588659         1.768825         0.161466
 C        -2.610111         2.281758         1.193793
 O        -1.806436         3.211362         2.270118
 C        -1.623018         1.984351         2.981273
 C        -0.303470         1.346970         2.357508
 C        -2.699200         1.217357         2.257719
 C        -2.046273        -0.102121         1.734478
 H         0.938388         0.244721         0.851488
 H        -0.870152         2.465348        -0.198625
 H        -1.936619         1.401386        -0.803068
 H        -3.451123         2.832428         0.621725
 H        -1.668541         2.105821         4.079207
 H         0.469918         2.115450         2.130373
 H         0.232752         0.546018         3.008699
 H        -3.654394         1.031639         2.698446
 H        -1.552854        -0.843712         2.480968
 H        -2.733884        -0.583434         0.986718
