19
Iteration:  2521
 O         0.062364        -0.096270         0.382299
 C        -0.801573         0.738699         1.051860
 C        -1.586462         1.741483         0.208692
 C        -2.599884         2.314461         1.239241
 O        -2.026273         3.241814         2.204255
 C        -1.478499         2.096524         2.956399
 C        -0.222078         1.472772         2.251942
 C        -2.622873         1.143455         2.322989
 C        -1.893400        -0.088218         1.717509
 H         0.319331         0.249220        -0.504340
 H        -0.971210         2.529282        -0.118637
 H        -2.288365         1.351597        -0.558916
 H        -3.527321         2.819168         0.787145
 H        -1.369608         2.422375         3.988716
 H         0.486000         2.310681         1.976247
 H         0.189065         0.706723         2.923557
 H        -3.565164         0.882231         2.975785
 H        -1.441379        -0.756057         2.448579
 H        -2.381338        -0.596228         0.846413
