19
Iteration:  3090charge 0 multiplicity 1
 O         0.045886        -0.031186         0.214131
 C        -0.755780         0.755526         1.031953
 C        -1.643929         1.800167         0.229784
 C        -2.657692         2.243063         1.238288
 O        -2.024866         3.211430         2.198094
 C        -1.465828         2.086058         2.891721
 C        -0.193999         1.395209         2.237527
 C        -2.673823         1.172800         2.365867
 C        -1.847723        -0.007454         1.824171
 H         0.829032        -0.201813         0.776782
 H        -1.041574         2.482005        -0.300454
 H        -2.167279         1.176366        -0.485481
 H        -3.591067         2.558069         0.907420
 H        -1.477069         2.269112         3.943171
 H         0.611981         2.141012         1.970727
 H         0.470455         0.769400         2.841919
 H        -3.531645         1.081694         3.102107
 H        -1.485381        -0.599285         2.689980
 H        -2.522974        -0.620500         1.243347
