19
Iteration:   192
 O         0.077102        -0.107629         0.387874
 C        -0.755243         0.805742         1.051419
 C        -1.549002         1.828550         0.208374
 C        -2.564059         2.335077         1.234556
 O        -1.903714         3.144257         2.223038
 C        -1.567358         2.003702         3.010817
 C        -0.227249         1.529775         2.437888
 C        -2.698988         1.091438         2.221243
 C        -2.002873        -0.067821         1.549200
 H         0.347626         0.310523        -0.475507
 H        -0.883963         2.676374        -0.082776
 H        -2.089952         1.378194        -0.597565
 H        -3.453960         2.848175         0.783182
 H        -1.596759         2.153284         4.104067
 H         0.256782         2.519804         2.299200
 H         0.328413         0.802757         3.117781
 H        -3.631792         0.974648         2.763377
 H        -1.579005        -0.817139         2.234800
 H        -2.520108        -0.477211         0.650001
