19
Iteration:    87
 O         0.089387        -0.205657         0.389324
 C        -0.746602         0.758200         1.019453
 C        -1.404471         1.952710         0.290497
 C        -2.591757         2.364423         1.250162
 O        -2.059651         3.220682         2.338409
 C        -1.597511         1.964455         2.901348
 C        -0.321275         1.360708         2.257908
 C        -2.686031         1.169923         2.231042
 C        -1.923238         0.022222         1.555429
 H         1.024903         0.175116         0.411735
 H        -0.800426         2.906389         0.044271
 H        -1.755048         1.632600        -0.706709
 H        -3.459407         2.820802         0.823931
 H        -1.419577         1.943243         3.963138
 H         0.393779         2.158435         2.094596
 H         0.050343         0.707263         2.983944
 H        -3.612745         0.905395         2.666697
 H        -1.497893        -0.729028         2.200293
 H        -2.585196        -0.596451         0.934821
