19
Iteration:  2834
 O         0.153888        -0.024536         0.170136
 C        -0.815687         0.666889         1.011167
 C        -1.629585         1.676985         0.270059
 C        -2.649259         2.237546         1.297046
 O        -1.908254         3.234952         2.192018
 C        -1.516625         2.079380         3.025311
 C        -0.263703         1.509587         2.280839
 C        -2.648963         1.201129         2.342871
 C        -1.972468        -0.031883         1.702816
 H         0.880007        -0.134409         0.791258
 H        -1.010950         2.482642        -0.197143
 H        -2.189649         1.196514        -0.544813
 H        -3.643137         2.569455         0.858097
 H        -1.350299         2.448841         4.100995
 H         0.380128         2.346635         1.891186
 H         0.498937         1.060925         2.995130
 H        -3.558314         1.119866         2.978298
 H        -1.725772        -0.864112         2.386448
 H        -2.683301        -0.389241         0.904572
