19
Iteration:  1194charge 0 multiplicity 1
 O         0.327704         0.128635         0.365734
 C        -0.873935         0.634021         1.079253
 C        -1.621784         1.750194         0.268724
 C        -2.685011         2.345494         1.230821
 O        -1.982741         3.200420         2.103048
 C        -1.488803         2.058259         2.904833
 C        -0.207689         1.420687         2.297790
 C        -2.630865         1.196680         2.328066
 C        -2.072339        -0.142271         1.752400
 H         0.078466        -0.092297        -0.548103
 H        -0.865052         2.517064        -0.109720
 H        -1.982400         1.054350        -0.549233
 H        -3.619636         2.832749         0.913943
 H        -1.594384         2.316622         4.005394
 H         0.653793         2.001224         1.944796
 H         0.224106         0.614296         3.003211
 H        -3.584233         1.224099         3.050398
 H        -1.585114        -0.816598         2.528728
 H        -2.702005        -0.785190         1.045016
