19
Iteration:  2962charge 0 multiplicity 1
 O         0.154545         0.062137         0.314661
 C        -0.843778         0.693092         1.023894
 C        -1.634068         1.721707         0.272005
 C        -2.656666         2.276064         1.335750
 O        -1.992445         3.252258         2.152023
 C        -1.425632         2.083212         2.891363
 C        -0.181902         1.459003         2.264315
 C        -2.614819         1.148729         2.334094
 C        -1.932981        -0.061881         1.719410
 H        -0.140979        -0.865841         0.234579
 H        -0.946026         2.607697        -0.113977
 H        -2.261299         1.327135        -0.543021
 H        -3.640830         2.692420         0.874444
 H        -1.494788         2.281558         3.962911
 H         0.475640         2.210650         1.959981
 H         0.140484         0.666218         2.918939
 H        -3.551131         0.924114         2.876176
 H        -1.539918        -0.852489         2.427601
 H        -2.577518        -0.570019         0.970998
