19
Iteration:  2145
 O         0.087152        -0.155688         0.353556
 C        -0.787815         0.770247         1.013194
 C        -1.802825         1.716360         0.256574
 C        -2.727632         2.210649         1.320091
 O        -2.018923         3.183994         2.094006
 C        -1.491634         2.165314         2.849888
 C        -0.190114         1.687056         2.135798
 C        -2.523184         1.078167         2.427785
 C        -1.797449        -0.050679         1.773244
 H         0.895053        -0.232091         0.873678
 H        -1.106591         2.625814         0.035597
 H        -2.112706         1.176377        -0.599382
 H        -3.659213         2.628748         0.950940
 H        -1.207856         2.556462         3.910397
 H         0.573007         2.600887         1.846897
 H         0.303451         0.948853         2.894294
 H        -3.471579         0.885651         2.986433
 H        -1.425819        -0.667554         2.616774
 H        -2.466968        -0.625202         1.122240
