19
Iteration:  3943charge 0 multiplicity 1
 O         0.171494         0.008408         0.307972
 C        -0.802753         0.743113         1.044665
 C        -1.553480         1.794247         0.202652
 C        -2.599498         2.294616         1.293748
 O        -1.963914         3.229814         2.190662
 C        -1.440540         1.950125         3.007952
 C        -0.258380         1.482227         2.194182
 C        -2.687103         1.173024         2.396270
 C        -2.046307        -0.102610         1.732659
 H        -0.075503         0.000565        -0.621371
 H        -1.080851         2.760954        -0.063369
 H        -2.046997         1.422119        -0.655083
 H        -3.523754         2.670717         0.800607
 H        -1.359852         2.088810         4.130623
 H         0.457891         2.259590         1.988232
 H         0.455071         0.764580         2.754468
 H        -3.586369         0.997389         3.007620
 H        -1.681745        -0.891818         2.373623
 H        -2.645828        -0.618877         0.973178
