19
Iteration:   489charge 0 multiplicity 1
 O         0.084855        -0.214794         0.287536
 C        -0.792218         0.803644         1.040969
 C        -1.450969         1.801032         0.205729
 C        -2.530040         2.416433         1.296546
 O        -2.016492         3.177790         2.340407
 C        -1.601466         1.930761         2.978905
 C        -0.254216         1.579570         2.315026
 C        -2.694414         1.125322         2.223418
 C        -1.955481        -0.000318         1.583665
 H         1.032746        -0.045231         0.291430
 H        -0.743525         2.648991        -0.162589
 H        -2.023900         1.245334        -0.563518
 H        -3.390004         2.783919         0.724457
 H        -1.687022         2.091760         4.051227
 H         0.261087         2.506198         2.107277
 H         0.399597         1.034831         3.007797
 H        -3.713434         1.041730         2.718398
 H        -1.778055        -0.722961         2.318375
 H        -2.537533        -0.595248         0.858441
