19
Iteration:  2293
 O        -0.048486        -0.132232         0.351677
 C        -0.763770         0.760505         1.074112
 C        -1.613769         1.755099         0.196696
 C        -2.628640         2.203113         1.225466
 O        -2.091847         3.185036         2.133151
 C        -1.475383         2.124015         2.924449
 C        -0.181272         1.621941         2.199074
 C        -2.543426         1.120951         2.384383
 C        -1.820918        -0.027518         1.814308
 H         0.725925         0.385142         0.035432
 H        -1.014489         2.536314        -0.204106
 H        -2.265456         1.336444        -0.655948
 H        -3.703097         2.361981         0.859503
 H        -1.478862         2.340887         3.952781
 H         0.574376         2.303944         2.035192
 H         0.387022         0.854234         2.719228
 H        -3.445211         0.899668         3.100533
 H        -1.292769        -0.572341         2.591065
 H        -2.353178        -0.710687         1.113175
