19
Iteration:   402
 O         0.166001         0.071671         0.352077
 C        -0.812929         0.764929         1.051072
 C        -1.559266         1.829338         0.239987
 C        -2.578486         2.363771         1.195504
 O        -1.866780         3.146165         2.185543
 C        -1.581724         1.971598         2.948798
 C        -0.268077         1.348674         2.421044
 C        -2.765212         1.149334         2.270100
 C        -1.977529        -0.111511         1.673211
 H         0.700869         0.676192        -0.207062
 H        -0.966808         2.766929        -0.146047
 H        -1.959282         1.308645        -0.652722
 H        -3.406474         2.953598         0.758094
 H        -1.546097         2.175923         4.021545
 H         0.520240         2.069198         2.068450
 H         0.036741         0.408569         2.898453
 H        -3.747898         1.043916         2.825107
 H        -1.767815        -0.802616         2.516437
 H        -2.557154        -0.601000         0.850310
