19
Iteration:   747
 O         0.097901        -0.090009         0.330180
 C        -0.789430         0.793205         1.057148
 C        -1.454846         1.826580         0.197608
 C        -2.564464         2.329049         1.204954
 O        -2.080123         3.209736         2.251030
 C        -1.568725         1.959336         2.943136
 C        -0.217861         1.545753         2.296112
 C        -2.646753         1.142207         2.246345
 C        -1.887518        -0.076451         1.732900
 H        -0.509925        -0.715244        -0.143365
 H        -0.778842         2.671864         0.112006
 H        -1.940580         1.473604        -0.810153
 H        -3.532077         2.751400         0.782616
 H        -1.410563         2.020184         4.045647
 H         0.385523         2.428161         2.191329
 H         0.270024         0.939413         3.031352
 H        -3.607315         0.984209         2.817738
 H        -1.580895        -0.703660         2.626315
 H        -2.450383        -0.718727         1.035144
