19
Iteration:   282charge 0 multiplicity 1
 O         0.213705         0.183225         0.257274
 C        -0.750262         0.741047         1.191147
 C        -1.576452         1.739245         0.180936
 C        -2.604240         2.347952         1.220507
 O        -1.854060         3.084162         2.207699
 C        -1.504494         1.986863         2.986847
 C        -0.221069         1.467344         2.416691
 C        -2.779076         1.170703         2.242543
 C        -2.107589        -0.067098         1.649420
 H         0.406134        -0.789212         0.288868
 H        -0.977908         2.196179        -0.646168
 H        -2.204892         1.103551        -0.303576
 H        -3.432209         2.979031         0.897030
 H        -1.475922         2.223744         4.036704
 H         0.246119         2.397262         2.131524
 H         0.228630         0.703219         2.989800
 H        -3.766379         0.942615         2.592232
 H        -1.879023        -0.957439         2.229152
 H        -2.797844        -0.419367         0.817082
