19
Iteration:  3027charge 0 multiplicity 1
 O         0.116330        -0.058736         0.412057
 C        -0.863263         0.744576         1.022305
 C        -1.730220         1.766337         0.157851
 C        -2.693264         2.327318         1.283038
 O        -1.979115         3.229876         2.227042
 C        -1.444818         2.075206         2.872427
 C        -0.142120         1.478648         2.269923
 C        -2.583689         1.128376         2.297547
 C        -1.904371        -0.076798         1.753780
 H         0.507880         0.125470        -0.434621
 H        -1.128238         2.618406        -0.450901
 H        -2.249015         1.250167        -0.621493
 H        -3.671769         2.789282         0.874267
 H        -1.370397         2.264051         3.945041
 H         0.698968         2.164496         2.107785
 H         0.188181         0.661606         3.066108
 H        -3.357442         0.924290         3.104311
 H        -1.502350        -0.889688         2.432341
 H        -2.400432        -0.687167         1.001066
