19
Iteration:  4451charge 0 multiplicity 1
 O         0.036918         0.162599         0.205420
 C        -0.810056         0.769454         1.063392
 C        -1.612657         1.755809         0.254207
 C        -2.647218         2.206718         1.248868
 O        -1.924175         3.111702         2.168688
 C        -1.466071         2.057717         2.920043
 C        -0.195275         1.436924         2.332005
 C        -2.608235         1.171438         2.398224
 C        -1.971623        -0.047116         1.691313
 H         0.646464        -0.469267         0.623088
 H        -0.932518         2.456169        -0.142034
 H        -1.990409         1.187275        -0.671839
 H        -3.655485         2.511880         0.775939
 H        -1.392713         2.366825         3.915557
 H         0.408826         2.263057         2.255814
 H         0.191237         0.550214         3.001715
 H        -3.527812         1.157110         3.068820
 H        -1.513553        -0.760785         2.366866
 H        -2.733285        -0.574211         1.043160
