19
Iteration:  2985
 O         0.225596         0.189705         0.218937
 C        -0.771295         0.727868         1.098899
 C        -1.656003         1.645100         0.173708
 C        -2.653810         2.218234         1.190287
 O        -1.882959         3.126552         2.150464
 C        -1.452707         2.056456         2.928330
 C        -0.154989         1.489120         2.350360
 C        -2.657540         1.183861         2.457553
 C        -2.120657        -0.056988         1.801765
 H        -0.308509        -0.477681        -0.272612
 H        -0.994672         2.546652        -0.303238
 H        -2.036763         1.034741        -0.669941
 H        -3.673626         2.762597         0.892605
 H        -1.462734         2.260516         4.037581
 H         0.346009         2.316866         1.959735
 H         0.311372         0.774093         3.000276
 H        -3.680312         1.233499         2.899676
 H        -1.788865        -0.958432         2.415115
 H        -3.003033        -0.430414         1.246220
