19
Iteration:  3500
 O         0.129218         0.092358         0.156549
 C        -0.791518         0.712227         1.128479
 C        -1.684123         1.751417         0.328466
 C        -2.712256         2.268436         1.296518
 O        -1.827779         3.205450         2.014280
 C        -1.505370         2.005649         2.965509
 C        -0.226786         1.438116         2.339067
 C        -2.653598         1.130885         2.376232
 C        -1.957081        -0.038266         1.724299
 H         0.650214        -0.447290         0.766887
 H        -1.138987         2.622827        -0.272421
 H        -2.094532         1.302922        -0.613792
 H        -3.692374         2.762226         1.033237
 H        -1.505172         2.343886         3.991846
 H         0.458783         2.224554         2.053073
 H         0.414229         0.900519         3.123369
 H        -3.588413         0.948703         2.932255
 H        -1.792750        -0.804016         2.517619
 H        -2.588738        -0.556381         0.946564
