19
Iteration:  2334
 O         0.252710         0.105980         0.347393
 C        -0.807463         0.718627         1.078344
 C        -1.691015         1.619339         0.280312
 C        -2.641708         2.219189         1.312795
 O        -1.997177         3.188351         2.097985
 C        -1.487690         2.079989         2.881178
 C        -0.182550         1.498995         2.145136
 C        -2.631246         1.199656         2.404576
 C        -1.987782        -0.053844         1.804446
 H        -0.141903        -0.596436        -0.215027
 H        -1.098624         2.423328        -0.176015
 H        -2.226860         1.059639        -0.453611
 H        -3.599687         2.603517         0.886285
 H        -1.287354         2.399078         3.902866
 H         0.516212         2.369958         1.761903
 H         0.380634         0.910320         2.924210
 H        -3.562433         1.208406         2.993472
 H        -1.748254        -0.795807         2.559033
 H        -2.587622        -0.389568         0.937772
