19
Iteration:   720
 O         0.139582        -0.044024         0.217773
 C        -0.758171         0.773577         1.107096
 C        -1.487650         1.741167         0.263423
 C        -2.607871         2.273181         1.262322
 O        -2.085755         3.251687         2.172597
 C        -1.538298         2.094888         2.991661
 C        -0.229732         1.429437         2.367784
 C        -2.609238         1.179357         2.360530
 C        -1.997103        -0.071383         1.534061
 H         0.351115        -0.865677         0.733819
 H        -1.006443         2.722186        -0.035851
 H        -1.839127         1.271420        -0.656404
 H        -3.534720         2.627270         0.880220
 H        -1.358845         2.325987         4.049439
 H         0.487455         2.279816         2.157969
 H         0.236272         0.866374         3.234097
 H        -3.508926         1.069302         2.955580
 H        -1.785012        -0.897782         2.190919
 H        -2.595694        -0.478417         0.721527
