19
Iteration:  4513charge 0 multiplicity 1
 O         0.117703         0.005789         0.340331
 C        -0.843568         0.759574         1.001250
 C        -1.590218         1.829437         0.205861
 C        -2.612388         2.246191         1.248775
 O        -2.079201         3.222621         2.309624
 C        -1.434003         2.004830         2.940139
 C        -0.134714         1.530910         2.186379
 C        -2.598409         1.140124         2.400025
 C        -1.987754        -0.120804         1.625674
 H        -0.007416        -0.896871         0.650767
 H        -0.942322         2.641408        -0.153373
 H        -2.076237         1.279779        -0.607325
 H        -3.583737         2.645910         0.941391
 H        -1.175596         2.383151         3.962457
 H         0.512652         2.414349         1.991283
 H         0.644119         0.858530         2.520015
 H        -3.584418         1.019939         2.902958
 H        -1.712819        -0.946035         2.311285
 H        -2.706736        -0.451974         0.913257
