19
Iteration:  1363
 O         0.279665         0.029852         0.406584
 C        -0.804529         0.701256         1.023716
 C        -1.566070         1.835870         0.253441
 C        -2.661427         2.333353         1.192287
 O        -2.065798         3.238357         2.175003
 C        -1.498606         2.103441         2.836444
 C        -0.258075         1.320961         2.256382
 C        -2.663301         1.180500         2.370341
 C        -1.933890        -0.121422         1.780471
 H         0.004268        -0.591581        -0.284403
 H        -1.036401         2.773542        -0.057928
 H        -1.951865         1.187955        -0.584056
 H        -3.688284         2.654565         0.776488
 H        -1.378229         2.328040         3.950048
 H         0.549825         2.034950         2.234784
 H         0.041008         0.513181         2.891851
 H        -3.606556         1.248112         2.894404
 H        -1.596432        -0.903551         2.529095
 H        -2.550875        -0.496200         0.916706
