19
Iteration:  1962charge 0 multiplicity 1
 O         0.149043        -0.017788         0.281550
 C        -0.773572         0.686632         1.137694
 C        -1.716068         1.659130         0.229109
 C        -2.687478         2.210095         1.262132
 O        -2.001150         3.209197         1.992914
 C        -1.509221         2.171529         2.936962
 C        -0.160717         1.562156         2.303853
 C        -2.577957         1.175428         2.430372
 C        -1.936837        -0.087193         1.828217
 H         0.317500         0.638966        -0.414677
 H        -1.267764         2.576501        -0.306849
 H        -2.133548         1.059824        -0.558497
 H        -3.743993         2.443101         1.004424
 H        -1.433611         2.347907         4.008540
 H         0.785473         2.121243         1.971858
 H         0.369509         0.742089         2.958898
 H        -3.395893         1.066821         3.054561
 H        -1.493096        -0.834858         2.511986
 H        -2.457422        -0.477341         0.963587
