19
Iteration:  2960
 O         0.156211         0.041828         0.318136
 C        -0.843987         0.692568         1.021911
 C        -1.645997         1.722079         0.271634
 C        -2.666137         2.281661         1.334391
 O        -1.987217         3.259932         2.167383
 C        -1.436538         2.095765         2.886227
 C        -0.200213         1.462941         2.257183
 C        -2.616215         1.140084         2.335296
 C        -1.903946        -0.049925         1.703216
 H        -0.127646        -0.903325         0.253563
 H        -0.967899         2.553314        -0.065320
 H        -2.207095         1.385625        -0.599783
 H        -3.593006         2.673403         0.940929
 H        -1.492988         2.249298         3.926653
 H         0.537116         2.218158         1.951671
 H         0.157233         0.650795         2.948548
 H        -3.556817         0.910394         2.834104
 H        -1.515034        -0.820589         2.379650
 H        -2.603369        -0.595934         1.068738
