19
Iteration:  2057charge 0 multiplicity 1
 O         0.043474         0.006633         0.301251
 C        -0.804137         0.833656         1.099372
 C        -1.657924         1.715691         0.169267
 C        -2.649247         2.104984         1.280822
 O        -2.022425         3.129661         2.037912
 C        -1.398159         2.089880         2.935357
 C        -0.194175         1.636010         2.191927
 C        -2.567665         1.119199         2.475483
 C        -1.928179        -0.049914         1.794385
 H         0.449699        -0.653680         0.873150
 H        -1.323559         2.705827        -0.324230
 H        -2.001348         1.067630        -0.651996
 H        -3.551970         2.447872         0.820376
 H        -1.441235         2.529835         3.997594
 H         0.492819         2.439800         1.804871
 H         0.412170         1.228782         2.920903
 H        -3.502458         1.128606         3.166050
 H        -1.409184        -0.524137         2.645195
 H        -2.499084        -0.666138         1.080402
