19
Iteration:   459charge 0 multiplicity 1
 O         0.132134        -0.106324         0.405767
 C        -0.835211         0.743340         1.001919
 C        -1.470218         1.923378         0.226627
 C        -2.587328         2.396375         1.255703
 O        -2.032415         3.200535         2.298061
 C        -1.532330         1.917618         2.890291
 C        -0.298774         1.404665         2.305013
 C        -2.649517         1.167943         2.174072
 C        -1.960606        -0.068638         1.677564
 H         0.617099         0.455725        -0.230835
 H        -0.711742         2.740591         0.083150
 H        -1.812923         1.599572        -0.754204
 H        -3.559782         2.751762         0.884876
 H        -1.539721         1.985119         3.990325
 H         0.551739         2.110917         2.063128
 H         0.233338         0.691579         2.941258
 H        -3.613115         1.110072         2.781680
 H        -1.711475        -0.631214         2.633049
 H        -2.473645        -0.860879         1.101672
