19
Iteration:  1805
 O         0.233022        -0.158536         0.465429
 C        -0.759952         0.744415         1.006586
 C        -1.767238         1.758128         0.223259
 C        -2.692949         2.262123         1.287352
 O        -2.023898         3.221979         2.088157
 C        -1.503458         2.119424         2.950506
 C        -0.200632         1.521295         2.244497
 C        -2.592183         1.159013         2.416939
 C        -1.839173         0.020589         1.681086
 H         0.168418         0.058661        -0.492826
 H        -1.367617         2.534397        -0.402746
 H        -2.504225         1.157570        -0.444934
 H        -3.627345         2.583260         0.883175
 H        -1.292819         2.329014         4.015406
 H         0.543618         2.338513         1.860976
 H         0.204440         0.767239         3.018345
 H        -3.605401         0.769482         2.839205
 H        -1.465108        -0.800195         2.285881
 H        -2.553420        -0.491536         0.991436
