19
Iteration:  3019
 O         0.157661         0.003693         0.415408
 C        -0.855959         0.754513         1.041304
 C        -1.728194         1.780191         0.187597
 C        -2.693977         2.349299         1.269025
 O        -1.908416         3.241430         2.175897
 C        -1.476955         2.070412         2.844975
 C        -0.216573         1.405942         2.281766
 C        -2.592286         1.122588         2.345829
 C        -1.897056        -0.173279         1.768695
 H         0.119731         0.308038        -0.510489
 H        -1.205932         2.642718        -0.424326
 H        -2.384920         1.134586        -0.486655
 H        -3.676918         2.913194         0.902995
 H        -1.338944         2.338561         3.948159
 H         0.642532         2.011247         2.064327
 H         0.267730         0.806521         3.025781
 H        -3.559553         0.958578         2.829597
 H        -1.187837        -0.747552         2.401439
 H        -2.556064        -0.722620         1.050814
