19
Iteration:  2484
 O         0.164199         0.034965         0.185142
 C        -0.803675         0.669160         1.099180
 C        -1.683548         1.714864         0.211403
 C        -2.640011         2.269575         1.218923
 O        -1.919435         3.202920         2.092204
 C        -1.526379         2.084119         2.977152
 C        -0.278961         1.473029         2.316079
 C        -2.608341         1.160318         2.435141
 C        -1.974344        -0.045625         1.770275
 H         0.951361        -0.118976         0.746291
 H        -1.054427         2.612583        -0.205603
 H        -2.153037         1.286334        -0.699228
 H        -3.520372         2.723139         0.870869
 H        -1.298338         2.350670         4.083389
 H         0.423611         2.308634         2.245534
 H         0.339879         0.778420         2.817707
 H        -3.505515         1.025980         2.966421
 H        -1.684528        -0.877391         2.452955
 H        -2.661119        -0.519178         1.063572
