19
Iteration:  4296charge 0 multiplicity 1
 O         0.202760         0.151173         0.358982
 C        -0.862574         0.776324         1.070315
 C        -1.723804         1.729871         0.202781
 C        -2.651239         2.399163         1.346194
 O        -1.827162         3.148076         2.192987
 C        -1.486778         1.953703         2.906438
 C        -0.222426         1.458325         2.269060
 C        -2.656742         1.144912         2.302826
 C        -1.982096        -0.115005         1.664458
 H        -0.153211        -0.600629        -0.159707
 H        -1.175654         2.439668        -0.491722
 H        -2.453766         1.099921        -0.390948
 H        -3.652151         2.854397         1.007823
 H        -1.378578         2.069616         4.005891
 H         0.365514         2.238317         2.011898
 H         0.424843         0.749174         2.778310
 H        -3.372615         0.982408         3.106845
 H        -1.800316        -0.779375         2.568754
 H        -2.204437        -0.717739         0.716234
