19
Iteration:  3965charge 0 multiplicity 1
 O         0.159449        -0.087763         0.361024
 C        -0.833172         0.725175         0.987373
 C        -1.658301         1.842880         0.206357
 C        -2.611299         2.364114         1.353579
 O        -2.009239         3.204548         2.323163
 C        -1.456334         2.075999         2.899488
 C        -0.244082         1.488220         2.234041
 C        -2.554456         1.100637         2.278053
 C        -1.953457        -0.051185         1.647564
 H        -0.221048        -0.874700        -0.104537
 H        -1.014892         2.748582        -0.045968
 H        -2.151560         1.554612        -0.679711
 H        -3.586544         2.631215         0.898652
 H        -1.455131         2.217993         4.032041
 H         0.517241         2.147801         1.812453
 H         0.360691         0.924067         3.040991
 H        -3.476787         0.933502         2.884048
 H        -1.501989        -0.855563         2.179852
 H        -2.564340        -0.561358         0.891133
