19
Iteration:  3009
 O         0.206036         0.077147         0.341090
 C        -0.827695         0.725672         1.076543
 C        -1.738566         1.753280         0.249695
 C        -2.609093         2.321616         1.268561
 O        -1.870333         3.230205         2.078181
 C        -1.477432         2.056608         2.939092
 C        -0.289554         1.408862         2.280310
 C        -2.654196         1.131714         2.393408
 C        -1.901156        -0.127035         1.734537
 H        -0.046935         0.200786        -0.576807
 H        -1.133181         2.497911        -0.308385
 H        -2.336636         1.126497        -0.492510
 H        -3.623954         2.734435         0.954041
 H        -1.428104         2.278327         4.051186
 H         0.355132         2.194225         1.923714
 H         0.077500         0.591904         2.819042
 H        -3.583404         1.096470         2.951578
 H        -1.508113        -0.753250         2.568961
 H        -2.587647        -0.847676         1.223143
