19
Iteration:   153
 O         0.357307         0.176448         0.353890
 C        -0.851614         0.653520         1.026701
 C        -1.588408         1.817297         0.254389
 C        -2.605103         2.374903         1.236344
 O        -1.925501         3.220170         2.220247
 C        -1.499175         2.021891         2.920602
 C        -0.286363         1.341603         2.407583
 C        -2.673090         1.175720         2.273362
 C        -2.167034        -0.199462         1.607087
 H         0.282396        -0.599218        -0.187149
 H        -0.833959         2.581867        -0.075049
 H        -1.985727         1.449367        -0.742291
 H        -3.465761         2.856770         0.825253
 H        -1.551134         2.321513         3.956512
 H         0.676269         1.795883         2.264763
 H        -0.047737         0.629295         3.177276
 H        -3.567739         1.247796         2.877376
 H        -1.880688        -1.014515         2.273782
 H        -2.904099        -0.550309         0.860043
