19
Iteration:   697
 O         0.209793         0.045503         0.344821
 C        -0.817114         0.722470         1.067843
 C        -1.603351         1.835466         0.250551
 C        -2.640202         2.321617         1.207468
 O        -1.917262         3.166056         2.159754
 C        -1.545420         2.071239         2.916803
 C        -0.232782         1.348496         2.264421
 C        -2.674615         1.121986         2.304071
 C        -2.039788        -0.069853         1.694826
 H         1.081741         0.183945         0.759449
 H        -0.985713         2.742368        -0.084514
 H        -2.133007         1.488027        -0.603567
 H        -3.577774         2.775969         0.976237
 H        -1.588847         2.163642         3.999174
 H         0.612319         2.059037         2.120509
 H         0.178819         0.588602         3.025403
 H        -3.582049         1.123099         2.913115
 H        -1.722314        -0.808276         2.416309
 H        -2.750919        -0.637927         1.051919
