19
Iteration:  4561charge 0 multiplicity 1
 O         0.067698         0.158360         0.149336
 C        -0.794809         0.754894         1.049338
 C        -1.699652         1.753179         0.172904
 C        -2.563154         2.248218         1.282448
 O        -1.938699         3.163913         2.185362
 C        -1.471158         2.046634         3.004799
 C        -0.238457         1.407116         2.348107
 C        -2.632171         1.189485         2.329945
 C        -1.959942        -0.075050         1.738255
 H         0.740991        -0.364668         0.639554
 H        -0.982384         2.406740        -0.319165
 H        -2.181075         1.052389        -0.545509
 H        -3.500382         2.650625         0.787966
 H        -1.585603         2.249382         4.035016
 H         0.683295         1.888793         2.153100
 H         0.221000         0.647718         3.144883
 H        -3.502286         1.058212         2.981797
 H        -1.452840        -0.548996         2.553577
 H        -2.623548        -0.798023         1.220026
