19
Iteration:   105
 O         0.046645        -0.150905         0.282434
 C        -0.781928         0.815190         1.021529
 C        -1.525005         1.995319         0.188958
 C        -2.550091         2.376754         1.214759
 O        -1.993799         3.187484         2.274879
 C        -1.605769         1.973443         3.033471
 C        -0.190652         1.451458         2.438414
 C        -2.701557         1.113110         2.132581
 C        -1.943149        -0.110080         1.625886
 H         0.762384        -0.322806         0.956081
 H        -0.695730         2.737561        -0.076321
 H        -1.992858         1.743802        -0.743954
 H        -3.451539         2.897656         0.782396
 H        -1.791095         2.129935         4.121785
 H         0.705721         2.150090         2.451483
 H         0.320484         0.524254         2.948824
 H        -3.689715         0.945027         2.615267
 H        -1.658562        -0.711373         2.531099
 H        -2.212277        -0.781274         0.750649
