19
Iteration:  4873
 O         0.117015        -0.024337         0.285036
 C        -0.826413         0.802322         1.035784
 C        -1.590561         1.845287         0.227226
 C        -2.609026         2.251314         1.200128
 O        -2.017329         3.153460         2.228569
 C        -1.453153         1.973686         3.018566
 C        -0.195684         1.543051         2.291794
 C        -2.596291         1.108654         2.335780
 C        -1.950577        -0.034647         1.690263
 H        -0.476102        -0.696195        -0.089258
 H        -1.069107         2.701569        -0.049391
 H        -2.137641         1.463015        -0.676568
 H        -3.463818         2.710577         0.894919
 H        -1.265022         2.133527         4.095617
 H         0.500305         2.381490         1.962882
 H         0.302451         0.679901         2.800686
 H        -3.547992         1.325503         2.863585
 H        -1.530604        -0.771046         2.339544
 H        -2.670119        -0.588653         1.173823
