19
Iteration:  3876
 O         0.099939        -0.057220         0.280930
 C        -0.860903         0.796526         1.018641
 C        -1.673856         1.807806         0.208875
 C        -2.699928         2.264507         1.236113
 O        -1.968580         3.159983         2.184299
 C        -1.433592         1.979961         3.032194
 C        -0.173550         1.452451         2.273470
 C        -2.601982         1.165880         2.349306
 C        -1.971924        -0.008629         1.699693
 H         0.990255         0.339791         0.442216
 H        -1.154801         2.656027        -0.146238
 H        -1.980899         1.262640        -0.665838
 H        -3.502644         2.820759         0.827092
 H        -1.364418         2.256797         4.128496
 H         0.580122         2.185095         1.900931
 H         0.455625         0.780855         2.942210
 H        -3.362520         1.090972         3.052639
 H        -1.620547        -0.765558         2.424440
 H        -2.588497        -0.497909         0.954354
