19
Iteration:   141
 O         0.299354         0.208084         0.266715
 C        -0.871340         0.655409         1.127132
 C        -1.497427         1.740422         0.299964
 C        -2.528422         2.326352         1.251404
 O        -1.918408         3.236108         2.171587
 C        -1.594368         2.057423         3.040385
 C        -0.245977         1.323035         2.339485
 C        -2.760916         1.192898         2.290192
 C        -2.091651        -0.124718         1.569199
 H         0.130306        -0.770412         0.205317
 H        -0.744049         2.572112        -0.017894
 H        -2.074522         1.305950        -0.530772
 H        -3.373780         2.776828         0.776015
 H        -1.543350         2.129777         4.107688
 H         0.479761         2.089712         2.039480
 H         0.126253         0.450444         2.890532
 H        -3.724508         1.014033         2.686453
 H        -1.990576        -0.964883         2.255979
 H        -2.717862        -0.465683         0.689650
