19
Iteration:     1
 O         0.153813         0.054758         0.295755
 C        -0.798503         0.742215         1.065580
 C        -1.460608         1.871733         0.247365
 C        -2.541344         2.366570         1.228558
 O        -1.925365         3.165876         2.267208
 C        -1.597895         1.946761         2.972733
 C        -0.294226         1.356365         2.398789
 C        -2.714249         1.162176         2.209231
 C        -2.046533        -0.040854         1.553936
 H         0.568660        -0.611188         0.854687
 H        -0.770421         2.673186        -0.025526
 H        -1.897418         1.455224        -0.666707
 H        -3.399315         2.867094         0.776234
 H        -1.625759         2.074304         4.056633
 H         0.469781         2.125441         2.263924
 H         0.107824         0.568530         3.049622
 H        -3.675958         1.051206         2.704988
 H        -1.798625        -0.839332         2.262425
 H        -2.619897        -0.468061         0.725952
