19
Iteration:   443
 O         0.179950        -0.050220         0.333156
 C        -0.787055         0.737551         1.073457
 C        -1.485188         1.854616         0.243445
 C        -2.599149         2.287034         1.223211
 O        -1.987186         3.191864         2.222180
 C        -1.569329         2.057457         2.999325
 C        -0.216478         1.361274         2.338290
 C        -2.703111         1.146750         2.333136
 C        -2.043275        -0.034641         1.580290
 H         0.589754         0.407689        -0.402607
 H        -0.845589         2.740247         0.018911
 H        -2.010229         1.470441        -0.665923
 H        -3.372770         2.774415         0.601565
 H        -1.561397         2.299142         4.069668
 H         0.534861         2.114533         2.362078
 H        -0.031140         0.541430         3.064179
 H        -3.617339         1.007425         2.859163
 H        -1.646836        -0.912469         2.073175
 H        -2.707107        -0.353109         0.773173
