19
Iteration:  4632charge 0 multiplicity 1
 O         0.056807        -0.023287         0.335087
 C        -0.814072         0.774191         1.024687
 C        -1.571045         1.814743         0.160260
 C        -2.644046         2.321111         1.294079
 O        -2.076839         3.211408         2.286486
 C        -1.461059         2.063048         2.946442
 C        -0.160806         1.484861         2.174779
 C        -2.509831         1.074489         2.410666
 C        -1.986745        -0.069703         1.594335
 H         0.276961        -0.788194         0.916138
 H        -1.288204         2.763445        -0.251287
 H        -2.334186         1.373769        -0.465229
 H        -3.504599         2.617815         0.759050
 H        -1.267796         2.165951         4.078295
 H         0.749249         2.202458         2.030225
 H         0.366038         0.757231         2.761813
 H        -3.482104         0.965656         2.938807
 H        -1.346776        -0.681435         2.294537
 H        -2.508890        -0.652651         0.854914
