19
Iteration:  2053
 O         0.053347        -0.009098         0.315745
 C        -0.783000         0.810883         1.080875
 C        -1.652555         1.719157         0.169658
 C        -2.637251         2.132814         1.261780
 O        -2.038561         3.172756         2.055907
 C        -1.426019         2.094927         2.948303
 C        -0.156774         1.638618         2.148939
 C        -2.559212         1.113961         2.478965
 C        -1.960854        -0.085612         1.805810
 H         0.547966        -0.602904         0.928869
 H        -1.401321         2.655758        -0.136877
 H        -2.117708         1.128281        -0.628793
 H        -3.625286         2.460967         0.834734
 H        -1.381362         2.500010         3.921885
 H         0.328651         2.508051         1.772433
 H         0.571431         1.239100         2.992581
 H        -3.501684         1.010094         3.107379
 H        -1.483563        -0.661881         2.620683
 H        -2.495712        -0.672405         1.026724
