19
Iteration:  4197charge 0 multiplicity 1
 O         0.136041        -0.034090         0.266570
 C        -0.846958         0.636263         0.992679
 C        -1.695878         1.803968         0.233474
 C        -2.569429         2.324738         1.297329
 O        -1.897200         3.225177         2.270252
 C        -1.594041         2.049057         3.042972
 C        -0.275714         1.472550         2.220159
 C        -2.616833         1.166078         2.331867
 C        -1.909708        -0.081281         1.619745
 H         1.022050         0.352150         0.243590
 H        -1.030410         2.581316        -0.294999
 H        -2.307991         1.362851        -0.530123
 H        -3.489844         2.921090         1.003534
 H        -1.421808         2.132027         4.138193
 H         0.359361         2.243971         2.036934
 H         0.233331         0.693773         2.746544
 H        -3.458920         1.090537         2.962100
 H        -1.559822        -0.816985         2.355136
 H        -2.494222        -0.795045         1.017077
