19
Iteration:  4702
 O         0.121395         0.071296         0.197356
 C        -0.819661         0.792536         1.009217
 C        -1.689091         1.749919         0.202994
 C        -2.715387         2.272384         1.237653
 O        -1.894416         3.251525         2.198291
 C        -1.472301         2.070245         2.942197
 C        -0.223769         1.373164         2.346992
 C        -2.596068         1.100316         2.386556
 C        -1.954012        -0.060913         1.715638
 H         0.791796        -0.149365         0.886922
 H        -1.054984         2.486934        -0.315813
 H        -2.154723         1.039129        -0.496033
 H        -3.715398         2.729168         0.854047
 H        -1.455858         2.260988         4.001391
 H         0.540306         2.090775         2.359561
 H         0.237398         0.547609         2.864464
 H        -3.357446         0.862535         3.158254
 H        -1.561205        -0.816534         2.429271
 H        -2.685953        -0.498114         0.949191
