19
Iteration:  1207
 O         0.272170         0.121050         0.411991
 C        -0.828415         0.712116         1.045932
 C        -1.661519         1.704560         0.152006
 C        -2.626285         2.306356         1.219475
 O        -1.939069         3.233970         2.149077
 C        -1.502179         2.021627         2.902032
 C        -0.283882         1.334304         2.314159
 C        -2.668830         1.166203         2.313521
 C        -1.963162        -0.067077         1.805987
 H         0.134901         0.167635        -0.555679
 H        -1.018198         2.537163        -0.363931
 H        -2.285935         1.375664        -0.757693
 H        -3.552022         2.759402         0.737901
 H        -1.271865         2.252810         3.980605
 H         0.419351         2.149831         2.139895
 H         0.125773         0.662571         2.976611
 H        -3.578579         0.943406         2.915777
 H        -1.639701        -0.661904         2.711078
 H        -2.671861        -0.719861         1.331159
