19
Iteration:  3081charge 0 multiplicity 1
 O         0.002678        -0.063404         0.243440
 C        -0.839824         0.716474         1.057948
 C        -1.616942         1.771914         0.273557
 C        -2.647080         2.278703         1.267237
 O        -2.061554         3.229752         2.199244
 C        -1.436714         2.062176         2.897791
 C        -0.133373         1.527062         2.234591
 C        -2.575719         1.173295         2.291892
 C        -1.899610        -0.095917         1.789812
 H         0.909947        -0.175764         0.565327
 H        -0.982574         2.667652        -0.052753
 H        -2.027052         1.250226        -0.541049
 H        -3.626982         2.598742         0.843631
 H        -1.305496         2.235595         3.957932
 H         0.433419         2.364852         1.867028
 H         0.193480         0.781007         3.021863
 H        -3.527632         1.134378         2.915211
 H        -1.331004        -0.665720         2.575180
 H        -2.440079        -0.775363         1.130930
