19
Iteration:   824
 O         0.152481         0.022727         0.261834
 C        -0.862179         0.764061         1.056637
 C        -1.560619         1.799896         0.237045
 C        -2.711493         2.273933         1.275444
 O        -1.894701         3.181024         2.088725
 C        -1.540113         2.006964         2.879267
 C        -0.238100         1.434065         2.407145
 C        -2.697248         1.209691         2.323642
 C        -1.933715        -0.129642         1.727556
 H         1.065111         0.239251         0.481642
 H        -1.052754         2.705756         0.013840
 H        -1.980408         1.216971        -0.592919
 H        -3.587927         2.823834         0.807325
 H        -1.563886         2.307051         3.947755
 H         0.547535         2.141122         2.321106
 H         0.018337         0.628846         3.077898
 H        -3.482023         1.142301         3.122880
 H        -1.585549        -0.794181         2.534606
 H        -2.411414        -0.698440         0.912449
