19
Iteration:  1937charge 0 multiplicity 1
 O         0.223810        -0.020639         0.396445
 C        -0.851083         0.723977         1.009788
 C        -1.637843         1.665768         0.172338
 C        -2.627229         2.257999         1.241500
 O        -2.097117         3.278963         2.209161
 C        -1.460611         2.161151         2.855339
 C        -0.218705         1.513429         2.155819
 C        -2.626555         1.134671         2.411629
 C        -1.916223        -0.083686         1.898572
 H         0.104246        -0.108704        -0.571469
 H        -1.075483         2.365955        -0.556025
 H        -2.301400         1.034094        -0.482693
 H        -3.555002         2.537887         0.788934
 H        -1.195455         2.268358         3.944026
 H         0.687880         2.142820         1.798737
 H         0.277758         0.783276         2.832112
 H        -3.613059         1.001526         2.976784
 H        -1.256924        -0.619138         2.549280
 H        -2.470128        -0.730748         1.225889
