19
Iteration:  3038charge 0 multiplicity 1
 O         0.093302        -0.179463         0.371557
 C        -0.751293         0.780683         1.010357
 C        -1.689898         1.747685         0.185446
 C        -2.638182         2.258866         1.293164
 O        -2.062612         3.211736         2.213921
 C        -1.409176         2.054228         2.952225
 C        -0.185790         1.552443         2.231072
 C        -2.591589         1.175488         2.364162
 C        -1.928584        -0.006987         1.668415
 H         0.570847         0.411666        -0.269712
 H        -0.994530         2.642205        -0.184390
 H        -2.228854         1.244128        -0.582169
 H        -3.674691         2.620527         0.945236
 H        -1.400429         2.183722         4.032895
 H         0.559137         2.311146         1.987302
 H         0.319379         0.630239         2.784341
 H        -3.486901         1.086977         3.067714
 H        -1.654074        -0.630646         2.561707
 H        -2.596357        -0.489705         0.960527
