19
Iteration:  2300
 O         0.016981        -0.154583         0.365625
 C        -0.777210         0.767979         1.048089
 C        -1.699964         1.777934         0.160786
 C        -2.614828         2.207954         1.254023
 O        -2.083132         3.197038         2.150090
 C        -1.486677         2.151848         2.913105
 C        -0.197933         1.587751         2.251441
 C        -2.517841         1.136004         2.344947
 C        -1.814562        -0.085612         1.839395
 H         0.550444         0.313998        -0.335538
 H        -1.123470         2.671133        -0.240876
 H        -2.243123         1.384161        -0.638781
 H        -3.640155         2.364028         0.938779
 H        -1.354560         2.497243         3.981542
 H         0.610746         2.448309         1.957417
 H         0.159769         0.811323         2.987259
 H        -3.447010         1.163700         2.830512
 H        -1.305367        -0.799040         2.508034
 H        -2.275325        -0.785216         1.148093
