19
Iteration:  1090charge 0 multiplicity 1
 O         0.218483         0.088505         0.421965
 C        -0.844242         0.727829         1.056174
 C        -1.566626         1.696024         0.188801
 C        -2.645431         2.230685         1.288461
 O        -1.952476         3.179376         2.093202
 C        -1.488150         2.099896         2.963179
 C        -0.257756         1.474944         2.357058
 C        -2.590340         1.146158         2.374003
 C        -2.033684        -0.043017         1.632088
 H        -0.129000         0.132045        -0.485484
 H        -0.897921         2.372841        -0.371649
 H        -2.117218         1.098522        -0.536215
 H        -3.671282         2.529343         0.913617
 H        -1.560283         2.369877         3.999887
 H         0.582793         2.122444         1.970142
 H         0.205192         0.597900         3.046821
 H        -3.446309         1.036810         2.968042
 H        -1.711920        -0.919981         2.252252
 H        -2.814627        -0.330078         0.816012
