19
Iteration:  4471
 O         0.063448         0.020528         0.142433
 C        -0.745785         0.768407         1.074936
 C        -1.622115         1.796428         0.262272
 C        -2.648014         2.339356         1.258876
 O        -1.970543         3.274006         2.181922
 C        -1.518798         2.029084         3.035266
 C        -0.176054         1.475586         2.276228
 C        -2.648692         1.052712         2.286984
 C        -1.901968        -0.129122         1.773010
 H         0.197863        -0.849452         0.532915
 H        -1.105607         2.665758        -0.096074
 H        -2.168751         1.368967        -0.622167
 H        -3.604241         2.737979         0.775711
 H        -1.469733         2.107393         4.096139
 H         0.495442         2.291972         2.038806
 H         0.347049         0.849763         3.182489
 H        -3.610492         0.883843         2.852641
 H        -1.495689        -0.733336         2.553648
 H        -2.362518        -0.735415         1.003510
