19
Iteration:   207
 O         0.019642        -0.139972         0.252260
 C        -0.746103         0.666098         1.167606
 C        -1.442428         1.862669         0.224699
 C        -2.558124         2.325399         1.222587
 O        -1.988698         3.240394         2.311998
 C        -1.626768         1.915982         2.936158
 C        -0.260957         1.580655         2.365968
 C        -2.618771         1.150872         2.223857
 C        -1.950879        -0.045021         1.638509
 H         0.713948         0.477609        -0.000433
 H        -0.817272         2.691074        -0.248534
 H        -1.786257         1.240316        -0.618798
 H        -3.472363         2.740981         0.855678
 H        -1.752255         1.999651         4.002306
 H         0.293661         2.397456         1.857707
 H         0.375329         1.040866         3.123490
 H        -3.545365         0.941556         2.742622
 H        -1.978894        -0.912280         2.286691
 H        -2.507590        -0.428595         0.751271
