19
Iteration:  4965
 O         0.243189         0.101375         0.363434
 C        -0.826090         0.759433         1.057614
 C        -1.756611         1.796013         0.176585
 C        -2.663315         2.404377         1.358201
 O        -1.827907         3.186362         2.161524
 C        -1.435741         1.991145         2.914840
 C        -0.236305         1.411665         2.272695
 C        -2.685322         1.115126         2.320202
 C        -2.000813        -0.146854         1.733941
 H        -0.075060         0.071388        -0.563003
 H        -1.130419         2.656956        -0.266548
 H        -2.220527         1.082451        -0.490659
 H        -3.720262         2.745712         0.945513
 H        -1.403299         2.312489         3.960510
 H         0.474850         2.158785         1.948017
 H         0.307676         0.613278         2.808602
 H        -3.649347         0.772236         2.681124
 H        -1.673474        -0.921145         2.417843
 H        -2.719536        -0.778403         1.282718
