19
Iteration:   221
 O         0.067367        -0.115655         0.223621
 C        -0.760129         0.717071         1.063960
 C        -1.417473         1.794935         0.332864
 C        -2.542755         2.359298         1.209794
 O        -2.117144         3.221080         2.318602
 C        -1.576218         2.041688         2.991415
 C        -0.182672         1.451091         2.277836
 C        -2.709416         1.178675         2.212712
 C        -1.996016        -0.076519         1.657478
 H         1.033457         0.035806         0.240450
 H        -0.684624         2.524974         0.091909
 H        -1.943482         1.495468        -0.667428
 H        -3.376238         2.781349         0.626817
 H        -1.451377         2.073001         4.099903
 H         0.409813         2.369102         2.154512
 H         0.474286         0.927512         2.933644
 H        -3.742051         1.179757         2.704328
 H        -1.597850        -0.778810         2.421317
 H        -2.548283        -0.613154         0.893416
