19
Iteration:  2632charge 0 multiplicity 1
 O         0.092429         0.072154         0.335604
 C        -0.872598         0.736163         1.099069
 C        -1.630959         1.781887         0.171378
 C        -2.572341         2.333520         1.236665
 O        -1.913957         3.193075         2.197636
 C        -1.512499         2.035614         2.964582
 C        -0.144126         1.489427         2.321866
 C        -2.618473         1.160958         2.278423
 C        -1.982069        -0.155025         1.713517
 H        -0.154784        -0.843020         0.235388
 H        -0.960558         2.547338        -0.183423
 H        -2.064033         1.280683        -0.731276
 H        -3.662623         2.684826         0.966518
 H        -1.533731         2.310655         3.979546
 H         0.482459         2.284466         1.965627
 H         0.271111         0.812201         2.968574
 H        -3.618248         1.060687         2.732845
 H        -1.570721        -0.956036         2.334488
 H        -2.470129        -0.726100         0.903198
