19
Iteration:  2301charge 0 multiplicity 1
 O         0.030900        -0.157658         0.364814
 C        -0.784725         0.770741         1.042749
 C        -1.706732         1.782774         0.157199
 C        -2.614790         2.206563         1.260239
 O        -2.081854         3.202072         2.151698
 C        -1.486489         2.155221         2.913643
 C        -0.196535         1.583059         2.259617
 C        -2.514530         1.138283         2.341744
 C        -1.810284        -0.095814         1.841963
 H         0.518971         0.288251        -0.375239
 H        -1.149806         2.668283        -0.234068
 H        -2.235620         1.356796        -0.653283
 H        -3.661314         2.398866         0.934240
 H        -1.337568         2.496521         3.947183
 H         0.581476         2.436019         1.957398
 H         0.135191         0.833526         3.018181
 H        -3.485905         1.187955         2.821927
 H        -1.320956        -0.805221         2.499401
 H        -2.293331        -0.786333         1.144093
