19
Iteration:  4041charge 0 multiplicity 1
 O         0.108097         0.111178         0.170580
 C        -0.812006         0.701653         1.050075
 C        -1.667074         1.774695         0.229938
 C        -2.646337         2.298381         1.265002
 O        -1.911414         3.148573         2.198396
 C        -1.462733         1.989682         2.973789
 C        -0.239132         1.338131         2.322014
 C        -2.647716         1.202206         2.326525
 C        -1.981938        -0.014166         1.745770
 H         1.041217         0.225621         0.369048
 H        -0.941816         2.562220        -0.185629
 H        -2.048412         1.218740        -0.629498
 H        -3.505317         2.765722         0.691892
 H        -1.250965         2.270620         4.091500
 H         0.588307         1.990331         2.175129
 H         0.154393         0.595515         3.033590
 H        -3.600803         1.129946         2.947873
 H        -1.870465        -0.585820         2.763001
 H        -2.660401        -0.534403         1.001373
