19
Iteration:   335
 O         0.084713        -0.086711         0.287532
 C        -0.744518         0.779446         1.085284
 C        -1.474685         1.894438         0.254684
 C        -2.630018         2.229666         1.230132
 O        -2.085639         3.187328         2.224738
 C        -1.490823         2.014840         2.940751
 C        -0.179229         1.476092         2.331920
 C        -2.632509         1.144256         2.314160
 C        -2.060737        -0.029903         1.582336
 H         0.719923        -0.554737         0.886919
 H        -0.821205         2.850243         0.299163
 H        -1.796661         1.670315        -0.785299
 H        -3.486947         2.702210         0.719377
 H        -1.636285         2.091868         4.007322
 H         0.614013         2.236795         2.149588
 H         0.364298         0.734148         3.013330
 H        -3.435151         1.043895         2.982833
 H        -1.698264        -0.914682         2.098051
 H        -2.693755        -0.296290         0.684001
