19
Iteration:  1197charge 0 multiplicity 1
 O         0.306978         0.140194         0.388366
 C        -0.833482         0.623185         1.051001
 C        -1.638487         1.742714         0.220670
 C        -2.682225         2.374520         1.227613
 O        -1.983095         3.204553         2.108162
 C        -1.455717         2.034085         2.906972
 C        -0.235448         1.385279         2.317596
 C        -2.642968         1.187697         2.335430
 C        -2.052443        -0.131221         1.765484
 H         0.114442         0.008925        -0.560187
 H        -0.843663         2.507632        -0.088245
 H        -2.075586         1.051384        -0.570746
 H        -3.663294         2.841676         0.855417
 H        -1.573913         2.306342         3.965134
 H         0.578300         2.031777         1.995922
 H         0.162493         0.710984         2.950029
 H        -3.541594         1.114467         2.937231
 H        -1.527926        -0.674421         2.577545
 H        -2.743658        -0.723796         1.224234
