19
Iteration:  2750
 O         0.113319         0.049677         0.341200
 C        -0.782900         0.752205         1.096410
 C        -1.653281         1.638916         0.177172
 C        -2.590250         2.250118         1.243700
 O        -1.910939         3.281894         2.196253
 C        -1.475744         2.083677         3.008909
 C        -0.213112         1.395776         2.295272
 C        -2.624848         1.152555         2.289709
 C        -2.004756        -0.075033         1.703711
 H         0.218199         0.526978        -0.516457
 H        -1.139685         2.453968        -0.217620
 H        -2.190343         1.101271        -0.656992
 H        -3.509112         2.557472         0.901245
 H        -1.440613         2.345962         4.045191
 H         0.452194         2.213297         1.907154
 H         0.170086         0.708680         2.994463
 H        -3.525413         1.073784         2.950298
 H        -1.945171        -0.848886         2.437684
 H        -2.609980        -0.533394         0.909532
