19
Iteration:  1812charge 0 multiplicity 1
 O         0.187177        -0.112549         0.460603
 C        -0.812771         0.817415         1.031451
 C        -1.790125         1.706872         0.183970
 C        -2.652610         2.253862         1.284064
 O        -1.967669         3.221617         2.089393
 C        -1.475778         2.102814         2.963345
 C        -0.213706         1.567964         2.257389
 C        -2.622203         1.110571         2.387084
 C        -1.836070        -0.034029         1.717789
 H         0.365392         0.082493        -0.474746
 H        -1.280251         2.454186        -0.402593
 H        -2.369059         0.958888        -0.420187
 H        -3.609293         2.604057         0.821582
 H        -1.327648         2.473724         3.961630
 H         0.500007         2.294787         2.104217
 H         0.223611         0.786416         2.850455
 H        -3.542961         0.871647         2.850884
 H        -1.489852        -0.950043         2.158661
 H        -2.566113        -0.344767         0.983832
