19
Iteration:  2999
 O         0.229700         0.150369         0.261809
 C        -0.874839         0.695118         1.028324
 C        -1.669570         1.648475         0.227192
 C        -2.618751         2.238424         1.316172
 O        -1.839842         3.191579         2.073758
 C        -1.520952         2.033245         2.993736
 C        -0.266157         1.465842         2.298660
 C        -2.666215         1.190932         2.375216
 C        -2.008327        -0.053742         1.806900
 H        -0.003804        -0.132522        -0.625514
 H        -1.073329         2.422236        -0.166172
 H        -2.250633         1.179402        -0.629062
 H        -3.516902         2.660545         0.859752
 H        -1.429082         2.372542         4.062103
 H         0.513679         2.232079         2.172094
 H         0.305751         0.786511         2.886831
 H        -3.459036         0.998064         3.065875
 H        -1.717152        -0.723934         2.611243
 H        -2.529677        -0.599802         0.965559
