19
Iteration:  3600charge 0 multiplicity 1
 O         0.067469        -0.097683         0.162937
 C        -0.783888         0.735996         1.028753
 C        -1.549249         1.829123         0.155218
 C        -2.626263         2.265648         1.264008
 O        -2.062561         3.212770         2.255769
 C        -1.451375         2.125806         2.938644
 C        -0.194360         1.509495         2.280334
 C        -2.626936         1.100955         2.378654
 C        -1.977272        -0.034214         1.783873
 H         0.709651        -0.523268         0.744046
 H        -0.952711         2.599292        -0.250176
 H        -2.022421         1.285423        -0.728326
 H        -3.577744         2.662961         0.963170
 H        -1.316280         2.320172         4.015988
 H         0.532412         2.308149         2.128807
 H         0.127151         0.752746         2.981489
 H        -3.446131         0.907524         3.084591
 H        -1.402793        -0.667705         2.372020
 H        -2.651635        -0.596909         1.153806
