19
Iteration:  3466charge 0 multiplicity 1
 O         0.052498        -0.040970         0.267562
 C        -0.836228         0.644526         0.994225
 C        -1.582370         1.789254         0.172791
 C        -2.585007         2.367649         1.207395
 O        -2.115591         3.231556         2.264244
 C        -1.473572         2.059405         3.015715
 C        -0.219857         1.465861         2.180486
 C        -2.515759         1.142970         2.328002
 C        -1.921920        -0.034273         1.795018
 H         0.681422        -0.491463         0.822482
 H        -0.674735         2.512115        -0.219108
 H        -2.203831         1.247960        -0.553966
 H        -3.572460         2.857456         0.920645
 H        -1.301116         2.074238         4.073249
 H         0.471282         2.274342         1.874670
 H         0.211393         0.820613         3.033119
 H        -3.450395         1.011625         2.894581
 H        -1.460184        -0.805624         2.495007
 H        -2.511766        -0.490453         0.948297
