19
Iteration:  4480
 O         0.108004        -0.053137         0.152822
 C        -0.753823         0.706082         0.996035
 C        -1.653958         1.828194         0.284298
 C        -2.638705         2.307950         1.275108
 O        -1.996659         3.269540         2.286699
 C        -1.539935         2.055975         2.974866
 C        -0.167537         1.532257         2.313494
 C        -2.675057         1.148405         2.297961
 C        -1.871508        -0.148874         1.690713
 H         0.127266        -0.965148         0.458207
 H        -0.927180         2.556060        -0.138689
 H        -2.087202         1.338561        -0.575779
 H        -3.545379         2.650544         0.788810
 H        -1.436215         2.363242         4.055848
 H         0.292103         2.551703         2.122453
 H         0.477058         0.744679         2.827282
 H        -3.647525         0.979571         2.775170
 H        -1.388319        -0.661488         2.552040
 H        -2.468099        -0.892318         1.234030
