19
Iteration:  4973charge 0 multiplicity 1
 O         0.261947         0.113638         0.322147
 C        -0.881506         0.773736         1.054366
 C        -1.696480         1.755449         0.187621
 C        -2.673366         2.370405         1.289301
 O        -1.900132         3.213317         2.196207
 C        -1.432148         2.024934         2.939183
 C        -0.195411         1.342318         2.237225
 C        -2.682827         1.110253         2.353779
 C        -2.017233        -0.099347         1.748996
 H        -0.122632        -0.084322        -0.551680
 H        -1.071058         2.488213        -0.320991
 H        -2.094076         1.119914        -0.672011
 H        -3.604521         2.835745         0.966577
 H        -1.251965         2.159004         4.028027
 H         0.525934         2.165115         2.139274
 H         0.147525         0.494823         2.921850
 H        -3.610035         0.932286         3.029396
 H        -1.524710        -0.716447         2.527670
 H        -2.655740        -0.669675         1.042115
