19
Iteration:  1351
 O         0.321606         0.104949         0.392961
 C        -0.834427         0.677626         1.055131
 C        -1.635572         1.784485         0.185575
 C        -2.624544         2.260686         1.244050
 O        -1.976860         3.256513         2.127976
 C        -1.529600         2.050680         2.939905
 C        -0.310468         1.358852         2.306134
 C        -2.674548         1.185430         2.354062
 C        -1.980556        -0.067520         1.704955
 H         0.011651        -0.666935        -0.105388
 H        -0.900141         2.564251        -0.209148
 H        -2.157877         1.474659        -0.732029
 H        -3.512992         2.830014         0.745975
 H        -1.293729         2.403416         3.995844
 H         0.625294         1.821790         1.956291
 H        -0.065480         0.638944         3.082155
 H        -3.535655         0.974151         2.917824
 H        -1.383398        -0.713093         2.423346
 H        -2.649986        -0.822463         1.240512
