19
Iteration:   103
 O         0.044171        -0.162702         0.300425
 C        -0.778982         0.809531         1.004293
 C        -1.515127         2.009194         0.193099
 C        -2.552081         2.380408         1.224031
 O        -2.003377         3.202553         2.283569
 C        -1.605185         1.975932         3.029243
 C        -0.197498         1.430251         2.421624
 C        -2.703566         1.098647         2.126700
 C        -1.930366        -0.102095         1.623530
 H         0.818607        -0.306631         0.917911
 H        -0.752797         2.709687        -0.003770
 H        -2.002412         1.732212        -0.752982
 H        -3.461578         2.872384         0.767319
 H        -1.762228         2.193469         4.122481
 H         0.677922         2.132041         2.417857
 H         0.326333         0.527255         2.924145
 H        -3.726070         0.946518         2.606914
 H        -1.616311        -0.665668         2.542744
 H        -2.196210        -0.721545         0.765305
