19
Iteration:  2261charge 0 multiplicity 1
 O         0.182714        -0.019495         0.228303
 C        -0.804313         0.643213         1.071835
 C        -1.708529         1.721462         0.252107
 C        -2.645695         2.186608         1.279485
 O        -2.038459         3.227911         2.118815
 C        -1.460521         2.155361         2.903937
 C        -0.179876         1.667830         2.187162
 C        -2.578223         1.173039         2.390589
 C        -1.934930        -0.137080         1.832236
 H         0.749944        -0.639455         0.716250
 H        -1.067523         2.467822        -0.153205
 H        -2.475772         1.269925        -0.554681
 H        -3.705798         2.513001         0.994616
 H        -1.430911         2.339939         3.957246
 H         0.393107         2.403395         1.792807
 H         0.427530         1.008828         2.836542
 H        -3.485776         1.048255         3.142809
 H        -1.799628        -0.742059         2.748707
 H        -2.593254        -0.644459         1.073637
