19
Iteration:  4048
 O         0.131693         0.046901         0.195070
 C        -0.779060         0.794213         1.031408
 C        -1.657042         1.759166         0.217117
 C        -2.702633         2.329205         1.244548
 O        -1.896799         3.118499         2.231223
 C        -1.393880         1.990770         2.953018
 C        -0.238517         1.357450         2.322313
 C        -2.657987         1.217835         2.313580
 C        -2.043592        -0.032587         1.749753
 H         0.978346         0.400394         0.501512
 H        -0.996293         2.467526        -0.152583
 H        -2.291873         1.301023        -0.641364
 H        -3.682297         2.558444         0.889714
 H        -1.281962         2.277263         3.966239
 H         0.559574         2.159672         2.400706
 H         0.023972         0.493804         2.919315
 H        -3.524777         1.132432         2.906028
 H        -1.738363        -0.655286         2.607516
 H        -2.559129        -0.494207         0.921064
