19
Iteration:  3818
 O         0.033951        -0.073192         0.211577
 C        -0.754237         0.797052         0.997812
 C        -1.562021         1.799702         0.188489
 C        -2.631303         2.235489         1.289445
 O        -2.002020         3.237721         2.223511
 C        -1.536125         2.019068         2.961160
 C        -0.145104         1.476953         2.242241
 C        -2.642730         1.138893         2.343942
 C        -1.924676         0.004332         1.756400
 H         0.837923        -0.334178         0.685097
 H        -1.092758         2.629675        -0.300959
 H        -2.165403         1.060856        -0.396621
 H        -3.586297         2.694644         0.982743
 H        -1.495237         2.152098         4.048098
 H         0.605776         2.298285         2.063646
 H         0.118524         0.719687         2.957317
 H        -3.550881         1.050196         3.039914
 H        -1.606854        -0.700566         2.653926
 H        -2.650898        -0.576422         1.067954
