19
Iteration:   122charge 0 multiplicity 1
 O         0.097051         0.059453         0.229715
 C        -0.763187         0.751181         1.089555
 C        -1.467782         1.816227         0.220470
 C        -2.560522         2.345127         1.191023
 O        -1.898955         3.137998         2.256186
 C        -1.605931         1.908603         2.949500
 C        -0.288084         1.454210         2.475060
 C        -2.694724         1.160509         2.224619
 C        -2.019815        -0.017503         1.615853
 H         0.487162        -0.774775         0.628033
 H        -0.885492         2.635228        -0.111316
 H        -1.881953         1.169846        -0.611640
 H        -3.424895         2.833762         0.746910
 H        -1.661573         2.070378         4.040643
 H         0.337428         2.314538         2.328337
 H         0.216346         0.834927         3.191321
 H        -3.658096         1.137203         2.763111
 H        -1.674165        -0.744313         2.351505
 H        -2.649382        -0.371920         0.827424
