19
Iteration:  4250
 O         0.042074        -0.005895         0.143187
 C        -0.770352         0.683509         1.035963
 C        -1.522480         1.849942         0.285320
 C        -2.646869         2.237703         1.350033
 O        -2.044495         3.270282         2.223238
 C        -1.457808         2.087415         2.932488
 C        -0.206636         1.517388         2.281565
 C        -2.648342         1.080867         2.354226
 C        -1.945054        -0.101351         1.671111
 H         0.354651        -0.788700         0.620465
 H        -0.791912         2.763283         0.149823
 H        -1.831195         1.466716        -0.682917
 H        -3.625866         2.586310         1.026847
 H        -1.179103         2.244777         4.026856
 H         0.621999         2.162841         2.032152
 H         0.173040         0.856721         3.072130
 H        -3.607365         0.955938         2.814928
 H        -1.430822        -0.921864         2.258735
 H        -2.708200        -0.534390         1.008416
