19
Iteration:  4049charge 0 multiplicity 1
 O         0.135140         0.037752         0.200202
 C        -0.780254         0.804277         1.029188
 C        -1.656258         1.757804         0.216339
 C        -2.702930         2.329102         1.243283
 O        -1.895298         3.121266         2.233459
 C        -1.393736         1.990515         2.944701
 C        -0.230285         1.361491         2.325230
 C        -2.658532         1.217639         2.312914
 C        -2.050681        -0.031490         1.746383
 H         0.962670         0.417518         0.514981
 H        -1.006795         2.488580        -0.168363
 H        -2.305551         1.305671        -0.634718
 H        -3.695449         2.559347         0.943703
 H        -1.293011         2.276792         3.996496
 H         0.539588         2.152640         2.407571
 H         0.006522         0.505032         2.880350
 H        -3.538037         1.123724         2.923766
 H        -1.697981        -0.723118         2.590873
 H        -2.563728        -0.522152         0.909754
