19
Iteration:  3443
 O         0.151732        -0.157470         0.233132
 C        -0.776399         0.724746         0.983225
 C        -1.593677         1.803485         0.278983
 C        -2.678861         2.271050         1.254122
 O        -2.011160         3.258629         2.289032
 C        -1.482177         2.042725         2.919010
 C        -0.166799         1.597465         2.148508
 C        -2.685764         1.104562         2.338721
 C        -2.003540        -0.065350         1.734164
 H         0.419050        -0.609753         1.071295
 H        -0.865387         2.738504         0.077816
 H        -2.097435         1.407976        -0.593951
 H        -3.575756         2.866059         1.033254
 H        -1.191713         2.207447         3.935915
 H         0.520755         2.433371         1.921289
 H         0.354194         1.024167         3.017437
 H        -3.559411         1.282974         2.947941
 H        -1.633431        -0.746344         2.584295
 H        -2.405218        -0.689950         0.886381
