19
Iteration:  2127
 O         0.101380         0.011645         0.340016
 C        -0.860053         0.772744         1.052702
 C        -1.672727         1.678407         0.139113
 C        -2.668086         2.125853         1.257707
 O        -2.025571         3.195646         2.058358
 C        -1.399942         2.097250         2.935259
 C        -0.187852         1.646013         2.178213
 C        -2.591269         1.151121         2.474848
 C        -1.914053        -0.083447         1.848504
 H         0.734173        -0.414285         0.926731
 H        -1.267463         2.607818        -0.380850
 H        -2.282218         1.089278        -0.613332
 H        -3.703059         2.472469         1.077023
 H        -1.314585         2.244997         3.994327
 H         0.324267         2.417784         1.637709
 H         0.626152         1.187419         2.624185
 H        -3.302573         1.041994         3.219485
 H        -1.369726        -0.767557         2.501212
 H        -2.562348        -0.568847         1.124087
