19
Iteration:  2013charge 0 multiplicity 1
 O         0.162411        -0.088566         0.310268
 C        -0.745393         0.706248         0.957772
 C        -1.701149         1.666204         0.170039
 C        -2.629738         2.248648         1.250430
 O        -2.152846         3.292444         2.233270
 C        -1.481429         2.158573         2.885930
 C        -0.152344         1.521471         2.154610
 C        -2.611250         1.152031         2.394218
 C        -1.908060        -0.072465         1.881800
 H         1.026175         0.042580         0.709017
 H        -1.256168         2.433467        -0.592073
 H        -2.374304         1.078305        -0.504540
 H        -3.560889         2.557614         0.828878
 H        -1.063984         2.436080         3.929607
 H         0.510322         2.413155         1.966388
 H         0.467918         0.837812         2.653425
 H        -3.585622         1.070125         3.048185
 H        -1.401332        -0.633118         2.687510
 H        -2.597984        -0.784613         1.362433
