19
Iteration:  4860
 O         0.122147         0.062881         0.357293
 C        -0.819547         0.779360         1.006983
 C        -1.680546         1.734733         0.138510
 C        -2.639706         2.339058         1.310793
 O        -1.954035         3.205228         2.251018
 C        -1.446985         1.953406         2.978255
 C        -0.204166         1.477173         2.285449
 C        -2.598920         1.194623         2.320123
 C        -1.947029        -0.080525         1.652579
 H        -0.217396        -0.753052        -0.051064
 H        -1.063949         2.467350        -0.438231
 H        -2.157698         1.055026        -0.617903
 H        -3.540783         2.717199         0.897103
 H        -1.490162         2.051630         4.071025
 H         0.504397         2.371084         2.221061
 H         0.346877         0.772883         2.947406
 H        -3.409932         0.849488         2.922102
 H        -1.567622        -0.816389         2.377121
 H        -2.474869        -0.487365         0.757150
