19
Iteration:  2913
 O         0.056821        -0.025051         0.310244
 C        -0.794801         0.724260         1.119003
 C        -1.553725         1.708475         0.259101
 C        -2.650705         2.262177         1.214178
 O        -2.046361         3.209570         2.324471
 C        -1.468891         2.053417         2.932561
 C        -0.147734         1.598434         2.133515
 C        -2.577231         1.163921         2.319893
 C        -1.956584        -0.042504         1.667376
 H        -0.274677        -0.914911         0.415770
 H        -1.039300         2.534870        -0.051920
 H        -1.902242         1.170205        -0.652303
 H        -3.514403         2.647838         0.786275
 H        -1.330533         2.223625         4.030519
 H         0.329875         2.532386         1.618452
 H         0.445566         0.990508         2.883916
 H        -3.439539         1.004043         2.979412
 H        -1.683024        -0.815669         2.369908
 H        -2.391411        -0.656499         0.847474
