19
Iteration:   953
 O         0.175079         0.032481         0.238395
 C        -0.726429         0.703624         1.144793
 C        -1.591869         1.628515         0.256043
 C        -2.630911         2.312825         1.245862
 O        -1.923848         3.219670         2.172545
 C        -1.580987         2.021723         2.951127
 C        -0.215884         1.507537         2.323347
 C        -2.687251         1.120048         2.296162
 C        -1.996960        -0.064400         1.745016
 H         0.625770         0.682249        -0.348736
 H        -1.058496         2.335318        -0.426766
 H        -2.226966         1.027003        -0.506667
 H        -3.542383         2.859213         0.873254
 H        -1.678384         2.359282         4.008414
 H         0.334940         2.389042         1.906919
 H         0.365887         0.943841         3.105067
 H        -3.592487         1.113981         2.961483
 H        -2.048201        -0.839704         2.573635
 H        -2.457313        -0.387676         0.858842
