19
Iteration:  1438
 O         0.236068        -0.002222         0.401916
 C        -0.800297         0.688676         1.092456
 C        -1.611650         1.767227         0.207303
 C        -2.660723         2.299732         1.244585
 O        -2.023232         3.264771         2.154040
 C        -1.508435         2.070392         2.914328
 C        -0.257193         1.355608         2.251153
 C        -2.665930         1.158064         2.299879
 C        -1.961758        -0.069028         1.744171
 H         0.751297         0.500002        -0.259260
 H        -0.959871         2.603684        -0.227708
 H        -2.160193         1.283244        -0.510892
 H        -3.606509         2.754445         0.711577
 H        -1.429350         2.538431         3.936680
 H         0.721654         2.003321         2.189049
 H         0.146194         0.448469         2.840126
 H        -3.494442         1.022379         2.970635
 H        -1.641482        -0.796949         2.552003
 H        -2.570115        -0.525706         0.985542
