19
Iteration:   579
 O         0.125473        -0.000251         0.258507
 C        -0.737706         0.756973         1.144152
 C        -1.589225         1.786098         0.256902
 C        -2.600632         2.349768         1.201566
 O        -1.927104         3.196522         2.307372
 C        -1.579939         1.949602         2.936584
 C        -0.272825         1.450137         2.372027
 C        -2.667629         1.196564         2.211130
 C        -1.974639        -0.031342         1.583348
 H         0.577856        -0.609377         0.897817
 H        -0.942384         2.382497        -0.460883
 H        -2.265848         1.178874        -0.425187
 H        -3.398320         2.855584         0.706396
 H        -1.458275         2.051910         4.035910
 H         0.406322         2.275302         2.121838
 H         0.309252         0.927279         3.094504
 H        -3.616147         1.011480         2.731638
 H        -1.733419        -0.911476         2.172543
 H        -2.409285        -0.508536         0.729612
