19
Iteration:  1722
 O         0.203434         0.051477         0.359967
 C        -0.815798         0.787860         1.043506
 C        -1.770364         1.738965         0.178264
 C        -2.747912         2.273688         1.290249
 O        -1.973320         3.211054         2.066468
 C        -1.438388         2.115223         2.865738
 C        -0.207457         1.381651         2.377770
 C        -2.589395         1.164573         2.320299
 C        -1.856637        -0.038656         1.727458
 H         0.373802        -0.721814         0.913357
 H        -1.338460         2.457885        -0.664491
 H        -2.406282         0.971376        -0.312858
 H        -3.803341         2.635079         1.065324
 H        -1.424105         2.405065         3.960736
 H         0.573982         2.106710         2.103014
 H         0.252500         0.709005         3.030693
 H        -3.413825         0.899454         3.017445
 H        -1.380924        -0.751381         2.500128
 H        -2.427512        -0.698540         1.041599
