19
Iteration:  1840charge 0 multiplicity 1
 O         0.141290         0.060960         0.279952
 C        -0.874997         0.671135         1.129167
 C        -1.677426         1.696088         0.229521
 C        -2.653510         2.216861         1.205543
 O        -1.931589         3.164339         2.055556
 C        -1.472177         2.031848         2.940931
 C        -0.202382         1.521658         2.253723
 C        -2.653385         1.192530         2.366646
 C        -1.930152        -0.055643         1.873997
 H         0.749677         0.808305         0.092231
 H        -0.995725         2.476789        -0.249810
 H        -2.126084         1.090125        -0.536074
 H        -3.583752         2.561066         0.743163
 H        -1.396531         2.340731         4.022913
 H         0.419759         2.404733         1.782174
 H         0.530659         1.017933         2.964213
 H        -3.633207         1.016219         2.884622
 H        -1.485506        -0.672583         2.720665
 H        -2.695682        -0.666062         1.335697
