19
Iteration:  3535charge 0 multiplicity 1
 O         0.177608         0.122771         0.221890
 C        -0.863779         0.759255         1.033998
 C        -1.670464         1.700640         0.161067
 C        -2.555250         2.248221         1.300887
 O        -1.951689         3.249861         2.178458
 C        -1.466209         2.007116         2.959158
 C        -0.273684         1.402608         2.269611
 C        -2.595371         1.186162         2.383951
 C        -1.984482        -0.020823         1.760160
 H         0.599351        -0.589802         0.757587
 H        -1.098600         2.408386        -0.397383
 H        -2.341806         0.929554        -0.385170
 H        -3.546819         2.402022         0.917729
 H        -1.243141         2.269070         4.038715
 H         0.513839         2.081121         1.929741
 H         0.117388         0.617976         2.869871
 H        -3.609390         0.960914         2.758885
 H        -1.772186        -0.620137         2.596513
 H        -2.745358        -0.524185         1.201475
