19
Iteration:  2032
 O         0.207845        -0.125319         0.272568
 C        -0.841908         0.646933         1.085292
 C        -1.670089         1.666402         0.245811
 C        -2.723100         2.263385         1.331160
 O        -2.104181         3.260425         2.212187
 C        -1.435745         2.156545         2.853574
 C        -0.244638         1.666646         2.087312
 C        -2.564103         1.162887         2.380425
 C        -1.855543        -0.090869         1.780599
 H         0.951099        -0.289771         0.879769
 H        -0.974332         2.234567        -0.211594
 H        -2.193310         1.134472        -0.560705
 H        -3.651650         2.639331         0.861276
 H        -1.470650         2.325684         3.906857
 H         0.411775         2.327679         1.635739
 H         0.427672         1.166462         2.879568
 H        -3.431763         1.182954         3.150690
 H        -1.525414        -0.752483         2.587039
 H        -2.612683        -0.512822         1.066617
