19
Iteration:  1054
 O         0.187005         0.006220         0.330351
 C        -0.809333         0.714043         1.083222
 C        -1.631709         1.795797         0.179654
 C        -2.640318         2.254981         1.250893
 O        -1.906921         3.194524         2.119071
 C        -1.572401         2.052241         2.952113
 C        -0.257905         1.460993         2.327344
 C        -2.660677         1.132623         2.247198
 C        -1.938564        -0.062788         1.778635
 H         0.473017         0.481934        -0.456566
 H        -0.942588         2.551780        -0.298534
 H        -2.257997         1.215286        -0.554152
 H        -3.608778         2.867118         1.154048
 H        -1.666584         2.243805         4.059749
 H         0.506944         2.260432         2.254729
 H         0.219336         0.617057         2.950585
 H        -3.539409         1.047380         2.956670
 H        -1.514592        -0.500297         2.725443
 H        -2.444330        -0.892243         1.310110
