19
Iteration:  1127charge 0 multiplicity 1
 O         0.228896        -0.107296         0.397087
 C        -0.824884         0.735573         1.065046
 C        -1.523556         1.827318         0.214782
 C        -2.690628         2.407252         1.294661
 O        -2.062789         3.196962         2.243699
 C        -1.547126         1.991816         2.892162
 C        -0.218542         1.503533         2.188889
 C        -2.668052         1.172081         2.231708
 C        -1.887999        -0.031886         1.724451
 H         0.009692        -0.938013        -0.075794
 H        -0.828670         2.605083        -0.055812
 H        -2.051631         1.241850        -0.573016
 H        -3.583086         2.754107         0.841150
 H        -1.511832         2.042256         4.009721
 H         0.355170         2.349121         1.824583
 H         0.392999         0.895234         2.900223
 H        -3.613556         0.886302         2.854692
 H        -1.405303        -0.458204         2.619376
 H        -2.518422        -0.794261         1.190281
