19
Iteration:   104charge 0 multiplicity 1
 O         0.044929        -0.157302         0.291196
 C        -0.780446         0.812893         1.012368
 C        -1.520786         2.002949         0.190695
 C        -2.550600         2.378340         1.219524
 O        -1.998754         3.195294         2.279107
 C        -1.605391         1.974828         3.031825
 C        -0.194237         1.441300         2.430051
 C        -2.702238         1.105598         2.128989
 C        -1.936934        -0.106788         1.624877
 H         0.794695        -0.314659         0.942316
 H        -0.722814         2.721391        -0.040348
 H        -1.997287         1.741322        -0.746680
 H        -3.459746         2.887386         0.772708
 H        -1.779083         2.164235         4.125551
 H         0.698020         2.140484         2.436679
 H         0.330201         0.520186         2.937691
 H        -3.712470         0.944120         2.612595
 H        -1.637723        -0.688974         2.541866
 H        -2.200690        -0.752686         0.754501
