19
Iteration:  2795
 O        -0.007281        -0.176740         0.367207
 C        -0.865140         0.700071         1.063055
 C        -1.589347         1.879403         0.263339
 C        -2.639684         2.291917         1.262851
 O        -2.067336         3.215081         2.254741
 C        -1.439138         2.078508         2.894448
 C        -0.176258         1.454717         2.207891
 C        -2.584911         1.190042         2.266454
 C        -1.845896        -0.038510         1.702495
 H         0.835217         0.300000         0.158529
 H        -0.972406         2.714994         0.055344
 H        -1.949780         1.509621        -0.735673
 H        -3.621072         2.573534         0.972686
 H        -1.324763         2.191517         3.930002
 H         0.400027         2.326284         1.860292
 H         0.347887         0.795914         2.861318
 H        -3.613893         1.029389         2.589857
 H        -1.357136        -0.636507         2.459354
 H        -2.304081        -0.816252         1.100802
