19
Iteration:  2746
 O         0.134653         0.075119         0.348066
 C        -0.817940         0.729842         1.089850
 C        -1.628262         1.646761         0.202203
 C        -2.617622         2.275122         1.257517
 O        -1.892568         3.300104         2.194776
 C        -1.479221         2.067105         2.963429
 C        -0.216252         1.377636         2.244235
 C        -2.656515         1.175306         2.285548
 C        -1.988845        -0.107002         1.741789
 H         0.204988         0.543704        -0.480305
 H        -1.176919         2.558497        -0.320034
 H        -2.165238         1.100690        -0.547767
 H        -3.590299         2.592681         0.774853
 H        -1.476760         2.284160         4.100816
 H         0.559494         2.191192         2.044775
 H         0.150668         0.579323         3.028336
 H        -3.507837         1.001901         2.961859
 H        -1.891645        -0.903242         2.516988
 H        -2.544364        -0.644161         0.950633
