19
Iteration:  2025
 O         0.219277        -0.132983         0.268088
 C        -0.791265         0.664424         1.054098
 C        -1.661808         1.613092         0.224688
 C        -2.686385         2.304473         1.313912
 O        -2.147048         3.264903         2.242577
 C        -1.438724         2.155671         2.850857
 C        -0.260829         1.598372         2.088594
 C        -2.552030         1.210249         2.394153
 C        -1.914814        -0.077088         1.784387
 H         1.023596        -0.158214         0.836196
 H        -1.092647         2.543858        -0.265803
 H        -2.318675         1.025791        -0.449474
 H        -3.600226         2.658662         0.878707
 H        -1.259309         2.355859         3.986303
 H         0.412637         2.343698         1.541798
 H         0.145850         1.167533         2.961988
 H        -3.372792         1.021667         3.147282
 H        -1.470420        -0.597468         2.659273
 H        -2.387074        -0.822129         1.125024
