19
Iteration:  2123charge 0 multiplicity 1
 O         0.120930         0.051960         0.317598
 C        -0.842684         0.751418         1.075578
 C        -1.712847         1.640949         0.129108
 C        -2.644167         2.141150         1.235699
 O        -2.044253         3.214918         2.070657
 C        -1.419692         2.093638         2.931056
 C        -0.191928         1.627818         2.177481
 C        -2.584539         1.146498         2.478077
 C        -1.913592        -0.068369         1.872110
 H         0.723708        -0.530951         0.847414
 H        -1.239093         2.617418        -0.314482
 H        -2.179581         0.989015        -0.593898
 H        -3.589741         2.579564         0.977712
 H        -1.274105         2.208531         4.080742
 H         0.394080         2.396485         1.488283
 H         0.670075         1.015602         2.627236
 H        -3.373236         1.049637         3.284347
 H        -1.470470        -0.804357         2.578704
 H        -2.608471        -0.502249         1.143056
