19
Iteration:  1928
 O         0.234119        -0.044591         0.421565
 C        -0.772398         0.649362         1.070674
 C        -1.708310         1.720930         0.155925
 C        -2.622911         2.289252         1.264432
 O        -2.077859         3.253457         2.166206
 C        -1.520564         2.103745         2.937496
 C        -0.201701         1.568779         2.076268
 C        -2.614655         1.161413         2.380463
 C        -1.870662        -0.106564         1.829239
 H        -0.172979        -0.359174        -0.415216
 H        -1.088440         2.590535        -0.307031
 H        -2.334371         1.192784        -0.540389
 H        -3.589578         2.700749         0.964728
 H        -1.433760         2.423655         4.007595
 H         0.533665         2.384375         1.643083
 H         0.291620         0.776616         2.770538
 H        -3.462425         1.169887         3.039343
 H        -1.472287        -0.723784         2.673097
 H        -2.460655        -0.857380         1.316231
