19
Iteration:  2663
 O         0.266366        -0.126632         0.312547
 C        -0.788113         0.723903         0.963056
 C        -1.578028         1.819348         0.235033
 C        -2.635326         2.329869         1.333236
 O        -2.050884         3.264987         2.267641
 C        -1.539813         2.011152         2.900454
 C        -0.175163         1.459529         2.182730
 C        -2.659396         1.226315         2.340648
 C        -2.013964        -0.051654         1.743438
 H        -0.199224        -0.951298         0.018203
 H        -0.991558         2.687360         0.128798
 H        -1.955529         1.489985        -0.808250
 H        -3.622431         2.431328         0.852083
 H        -1.421719         2.116592         3.953280
 H         0.504177         2.343260         1.994810
 H         0.164983         0.829098         2.937611
 H        -3.607239         1.213790         3.007980
 H        -1.473101        -0.693357         2.413938
 H        -2.590974        -0.616752         0.963371
