19
Iteration:  3422
 O         0.042040         0.015399         0.287971
 C        -0.826782         0.743312         1.101964
 C        -1.598100         1.768635         0.189743
 C        -2.627826         2.237357         1.278635
 O        -1.954826         3.176289         2.129494
 C        -1.488570         2.003846         2.964680
 C        -0.200640         1.501898         2.284311
 C        -2.567244         1.125480         2.390675
 C        -1.954044        -0.000257         1.653216
 H         0.374605        -0.670427         0.864841
 H        -1.010222         2.777297        -0.193596
 H        -2.161142         1.242913        -0.603949
 H        -3.612139         2.715889         0.978876
 H        -1.482927         2.415772         3.953949
 H         0.394790         2.323298         1.908090
 H         0.663806         1.021103         2.792107
 H        -3.459221         1.102971         3.034369
 H        -1.678051        -0.815733         2.384612
 H        -2.694621        -0.462943         0.963776
