19
Iteration:  1566
 O         0.193800         0.026485         0.371334
 C        -0.797121         0.833572         1.010685
 C        -1.671488         1.780475         0.195011
 C        -2.691094         2.271018         1.250493
 O        -1.912657         3.175674         2.060162
 C        -1.549475         2.053633         2.932937
 C        -0.244333         1.448550         2.360489
 C        -2.685212         1.118720         2.384796
 C        -1.855728        -0.060210         1.735863
 H        -0.231912        -0.790017         0.049291
 H        -1.038720         2.589328        -0.354031
 H        -2.227167         1.242679        -0.620270
 H        -3.433489         2.837031         0.728118
 H        -1.527076         2.333160         3.990064
 H         0.443912         2.305333         2.260555
 H         0.132520         0.705188         2.983246
 H        -3.457159         0.909945         3.088182
 H        -1.358196        -0.592745         2.586228
 H        -2.290627        -0.836303         1.064941
