19
Iteration:  1010charge 0 multiplicity 1
 O         0.118795        -0.217596         0.375843
 C        -0.751217         0.733917         1.004415
 C        -1.596439         1.819605         0.246489
 C        -2.667263         2.259463         1.266390
 O        -2.123382         3.238464         2.230511
 C        -1.471789         2.067176         2.927905
 C        -0.160082         1.565306         2.272250
 C        -2.572490         1.151529         2.305446
 C        -1.972876        -0.052297         1.620244
 H         1.024088         0.113799         0.369751
 H        -1.073777         2.811120         0.165842
 H        -2.127780         1.399345        -0.634357
 H        -3.638686         2.591304         0.672858
 H        -1.477267         2.335654         4.021424
 H         0.418723         2.418639         1.802814
 H         0.540003         0.983700         3.054374
 H        -3.497023         1.056309         3.009037
 H        -1.664423        -0.808432         2.453011
 H        -2.558460        -0.499152         0.792571
