19
Iteration:  2211
 O         0.176924         0.020083         0.347932
 C        -0.760698         0.788641         1.072627
 C        -1.778348         1.635298         0.253840
 C        -2.710897         2.235771         1.297372
 O        -1.944075         3.209772         1.970479
 C        -1.467448         2.103207         2.901442
 C        -0.170577         1.571641         2.281217
 C        -2.578656         1.121238         2.387443
 C        -1.923173        -0.091137         1.829635
 H        -0.016953        -0.244658        -0.586658
 H        -1.325616         2.591293        -0.103412
 H        -2.256617         1.075828        -0.459107
 H        -3.718832         2.553475         1.175330
 H        -1.495399         2.422608         4.006071
 H         0.332477         2.558418         1.813349
 H         0.430846         0.853939         2.918572
 H        -3.416287         0.888293         2.969506
 H        -1.336672        -0.678500         2.564270
 H        -2.665332        -0.790391         1.446700
