19
Iteration:  2559
 O         0.182910        -0.057369         0.380169
 C        -0.776093         0.735259         1.037825
 C        -1.610735         1.761791         0.234919
 C        -2.628935         2.330504         1.286652
 O        -1.996371         3.173543         2.213047
 C        -1.489275         2.080169         2.947248
 C        -0.186888         1.515960         2.214155
 C        -2.714033         1.149757         2.334852
 C        -1.972408        -0.057846         1.692201
 H        -0.319047        -0.680274        -0.194635
 H        -0.880906         2.586432        -0.120378
 H        -2.004968         1.366602        -0.701748
 H        -3.425982         2.782879         0.725831
 H        -1.358312         2.287213         4.051066
 H         0.400196         2.346977         1.814942
 H         0.618051         0.864966         2.871766
 H        -3.540034         1.135741         2.970674
 H        -1.849607        -0.918374         2.382620
 H        -2.508865        -0.535886         0.867946
