19
Iteration:   676
 O         0.167027         0.074765         0.400452
 C        -0.896840         0.722652         1.008449
 C        -1.612614         1.733707         0.105869
 C        -2.571991         2.349918         1.216992
 O        -1.827054         3.208989         2.196829
 C        -1.498717         1.914686         3.031130
 C        -0.339679         1.427019         2.350594
 C        -2.745051         1.153089         2.261848
 C        -1.954719        -0.063401         1.705465
 H         0.813077         0.747654         0.055706
 H        -0.854989         2.484708        -0.344114
 H        -2.194112         1.198470        -0.679604
 H        -3.475340         2.806247         0.847395
 H        -1.568060         2.103678         4.105750
 H         0.374220         2.310929         2.324039
 H         0.287714         0.583215         2.810923
 H        -3.699867         1.107364         2.787939
 H        -1.588390        -0.727027         2.455295
 H        -2.524551        -0.727246         1.044638
