19
Iteration:  3206charge 0 multiplicity 1
 O         0.053515        -0.083248         0.245943
 C        -0.796767         0.724989         1.105665
 C        -1.574117         1.798998         0.241380
 C        -2.656680         2.206686         1.279306
 O        -2.056795         3.221645         2.201545
 C        -1.480640         1.994291         2.934793
 C        -0.104712         1.598096         2.191902
 C        -2.600078         1.168522         2.328431
 C        -1.993765        -0.045579         1.773837
 H         0.924822        -0.234249         0.705787
 H        -1.068411         2.686317        -0.070568
 H        -2.090748         1.267968        -0.518204
 H        -3.635465         2.610683         0.831241
 H        -1.140633         2.102028         3.985604
 H         0.550851         2.260282         1.634102
 H         0.652833         1.124148         2.856418
 H        -3.577677         1.065084         2.766011
 H        -1.831181        -0.771330         2.546924
 H        -2.685694        -0.398151         0.963458
