19
Iteration:  1316charge 0 multiplicity 1
 O         0.208996         0.081338         0.399805
 C        -0.771103         0.788083         1.151934
 C        -1.636660         1.684717         0.208521
 C        -2.616090         2.306565         1.193731
 O        -1.887301         3.136643         2.110116
 C        -1.519822         2.002668         2.968819
 C        -0.199039         1.492200         2.352057
 C        -2.774661         1.130395         2.318341
 C        -1.960595        -0.008494         1.625350
 H        -0.465372        -0.381891        -0.119913
 H        -1.018294         2.463224        -0.297455
 H        -2.242829         1.121652        -0.383716
 H        -3.550105         2.723633         0.665461
 H        -1.485402         1.970501         4.080906
 H         0.345260         2.372073         1.865313
 H         0.450639         1.005082         3.128175
 H        -3.629198         0.934701         2.944518
 H        -1.684273        -0.758009         2.433104
 H        -2.548396        -0.407219         0.829007
