19
Iteration:  2075
 O         0.077083         0.064497         0.228274
 C        -0.789627         0.776836         1.052436
 C        -1.725340         1.628099         0.201083
 C        -2.753781         2.195406         1.214366
 O        -1.980691         3.208238         2.020438
 C        -1.515366         2.149899         2.908875
 C        -0.150596         1.541574         2.293536
 C        -2.549554         1.157139         2.447365
 C        -1.779673        -0.056889         1.907549
 H         0.239133        -0.790633         0.638186
 H        -1.166997         2.418182        -0.151636
 H        -2.278885         1.088492        -0.583596
 H        -3.802085         2.522580         0.999455
 H        -1.451113         2.530027         3.904345
 H         0.548797         2.337463         2.212173
 H         0.317622         0.666404         3.012915
 H        -3.470087         0.783772         3.021866
 H        -1.307181        -0.763119         2.621101
 H        -2.431305        -0.570036         1.156702
