19
Iteration:  4714charge 0 multiplicity 1
 O         0.207989        -0.024052         0.205290
 C        -0.821634         0.743722         1.022784
 C        -1.686203         1.762646         0.222533
 C        -2.646673         2.299498         1.414359
 O        -1.930303         3.207368         2.130224
 C        -1.497553         2.008662         2.954022
 C        -0.198629         1.478151         2.322244
 C        -2.660350         1.143410         2.409567
 C        -1.979944        -0.030588         1.625440
 H         1.060306         0.005168         0.695598
 H        -1.340879         2.728193        -0.297875
 H        -2.271032         1.291680        -0.582714
 H        -3.658124         2.739180         1.037128
 H        -1.339759         2.280222         3.976075
 H         0.504034         2.181140         1.949776
 H         0.087294         0.701953         3.048302
 H        -3.579826         0.950299         2.969928
 H        -1.656083        -0.836448         2.312018
 H        -2.780246        -0.558996         0.992008
