19
Iteration:   195
 O         0.061286        -0.117388         0.365792
 C        -0.761279         0.781294         1.093568
 C        -1.529253         1.830186         0.196017
 C        -2.560886         2.331886         1.234966
 O        -1.904624         3.150957         2.241313
 C        -1.574652         2.004707         2.980665
 C        -0.246960         1.551202         2.440767
 C        -2.680516         1.088726         2.219847
 C        -1.994435        -0.069521         1.545551
 H         0.378060         0.351865        -0.422757
 H        -0.901267         2.727771        -0.141466
 H        -2.078873         1.399992        -0.622657
 H        -3.425289         2.840160         0.824393
 H        -1.581780         2.096690         4.057865
 H         0.237316         2.549627         2.355689
 H         0.406589         0.914049         3.125299
 H        -3.570456         0.916773         2.772961
 H        -1.675516        -0.813949         2.278577
 H        -2.546098        -0.469851         0.654303
