19
Iteration:  3796charge 0 multiplicity 1
 O         0.045787         0.156957         0.236924
 C        -0.868953         0.689328         1.063249
 C        -1.646549         1.738250         0.229631
 C        -2.690152         2.309784         1.246268
 O        -1.882476         3.164043         2.090737
 C        -1.445677         2.015453         2.973790
 C        -0.172421         1.438406         2.332613
 C        -2.624305         1.160834         2.345550
 C        -1.949653        -0.112246         1.762325
 H         0.658293        -0.433248         0.715356
 H        -0.932021         2.513514         0.041460
 H        -2.170616         1.255527        -0.627797
 H        -3.630462         2.755594         0.825415
 H        -1.286248         2.462670         3.940135
 H         0.424248         2.319061         1.957104
 H         0.315927         0.823740         3.101370
 H        -3.567402         1.125096         3.009737
 H        -1.593962        -0.888683         2.582958
 H        -2.488052        -0.661998         0.887977
