19
Iteration:   615charge 0 multiplicity 1
 O         0.166121        -0.053094         0.351200
 C        -0.820627         0.731211         0.977009
 C        -1.379397         2.021449         0.309574
 C        -2.578107         2.241074         1.159278
 O        -2.092239         3.149638         2.242702
 C        -1.490222         2.072733         2.922808
 C        -0.337417         1.385530         2.262612
 C        -2.625899         1.157951         2.333971
 C        -1.984028        -0.075187         1.686370
 H        -0.131671        -0.998824         0.266423
 H        -0.804669         2.913319         0.193854
 H        -1.879715         1.725929        -0.656682
 H        -3.561422         2.654487         0.798049
 H        -1.273192         2.103766         4.031775
 H         0.331588         2.198522         1.980273
 H        -0.004272         0.693059         2.982759
 H        -3.507383         1.226785         2.928026
 H        -1.455356        -0.847535         2.355787
 H        -2.733541        -0.350048         0.923641
