19
Iteration:  1880charge 0 multiplicity 1
 O         0.082802        -0.030066         0.274538
 C        -0.806147         0.735424         1.044736
 C        -1.655722         1.709212         0.194694
 C        -2.648790         2.195080         1.213467
 O        -2.133129         3.225307         2.130074
 C        -1.441508         2.178806         2.926686
 C        -0.196053         1.522193         2.322504
 C        -2.477820         1.153730         2.362657
 C        -1.872368        -0.036459         1.801001
 H         0.596546        -0.600758         0.867798
 H        -1.074675         2.507971        -0.192211
 H        -2.238293         1.114848        -0.604273
 H        -3.657936         2.463379         0.912249
 H        -1.359705         2.465471         3.979649
 H         0.482031         2.280401         1.991570
 H         0.289635         0.768708         2.915395
 H        -3.438278         1.051463         2.975125
 H        -1.521998        -0.860547         2.353961
 H        -2.522944        -0.523290         1.057801
