19
Iteration:   498charge 0 multiplicity 1
 O         0.052200        -0.151602         0.290358
 C        -0.697207         0.738857         1.065618
 C        -1.460065         1.789735         0.198797
 C        -2.577048         2.308822         1.298264
 O        -2.030577         3.202837         2.303864
 C        -1.545725         1.959608         3.013398
 C        -0.292751         1.546935         2.344937
 C        -2.638724         1.207175         2.226821
 C        -2.007354        -0.013105         1.543918
 H         0.985567        -0.013774         0.497822
 H        -0.850710         2.595349        -0.353963
 H        -1.988427         1.311478        -0.653198
 H        -3.427405         2.831089         0.730507
 H        -1.512060         2.015315         4.111946
 H         0.223239         2.488979         2.145347
 H         0.150935         0.816615         3.125433
 H        -3.517070         0.976996         2.833824
 H        -1.648821        -0.748098         2.257279
 H        -2.567492        -0.274186         0.625613
