19
Iteration:   293
 O         0.224602         0.208169         0.235440
 C        -0.801921         0.711478         1.088345
 C        -1.627338         1.666889         0.214527
 C        -2.544942         2.362632         1.172943
 O        -1.876449         3.189761         2.246212
 C        -1.610870         1.910005         2.982381
 C        -0.237634         1.411006         2.399898
 C        -2.713772         1.215796         2.235358
 C        -2.029968        -0.087452         1.705031
 H         0.222725        -0.740711         0.405589
 H        -0.991495         2.434724        -0.271598
 H        -2.083833         1.061759        -0.502332
 H        -3.422031         2.856963         0.753380
 H        -1.634119         2.076917         4.052097
 H         0.479869         2.211723         2.268031
 H         0.384009         0.767574         2.987871
 H        -3.645913         1.280097         2.772280
 H        -1.961298        -0.754619         2.556494
 H        -2.541603        -0.554981         0.813836
