19
Iteration:   260
 O         0.176664         0.075160         0.342525
 C        -0.821709         0.752385         1.055983
 C        -1.615045         1.807080         0.223895
 C        -2.627326         2.253696         1.258017
 O        -1.874975         3.222673         2.177240
 C        -1.538170         1.984883         2.956498
 C        -0.265375         1.416507         2.380957
 C        -2.649139         1.163285         2.322155
 C        -1.997048        -0.085881         1.539641
 H         0.403748        -0.621099         0.964582
 H        -0.989800         2.740056         0.109646
 H        -1.955846         1.435994        -0.692843
 H        -3.523146         2.744397         0.889860
 H        -1.555889         2.279593         3.989442
 H         0.419316         2.237901         2.170691
 H         0.128975         0.505961         2.826929
 H        -3.565008         1.039519         2.862016
 H        -1.761262        -0.962723         2.145157
 H        -2.684409        -0.381965         0.696093
