19
Iteration:  1326charge 0 multiplicity 1
 O         0.211771         0.131362         0.396014
 C        -0.777440         0.769879         1.158351
 C        -1.670789         1.717134         0.178577
 C        -2.615806         2.252569         1.188889
 O        -1.837627         3.149348         2.124753
 C        -1.590018         1.955016         2.963567
 C        -0.232868         1.524303         2.340734
 C        -2.681080         1.187461         2.316093
 C        -2.008545        -0.088682         1.700209
 H        -0.127855        -0.598274        -0.129730
 H        -1.177851         2.465772        -0.443844
 H        -2.111763         1.066878        -0.475595
 H        -3.467738         2.867572         0.855731
 H        -1.513893         2.313576         3.977214
 H         0.449594         2.395723         2.079496
 H         0.441763         0.818857         2.989775
 H        -3.666253         1.155602         2.794139
 H        -1.744975        -1.054308         2.140503
 H        -2.566909        -0.448508         0.855869
