19
Iteration:  3960charge 0 multiplicity 1
 O         0.170691        -0.068383         0.364156
 C        -0.884238         0.693652         0.956671
 C        -1.642020         1.858035         0.250174
 C        -2.632104         2.323958         1.331722
 O        -1.974709         3.209305         2.313099
 C        -1.519187         2.091293         2.919153
 C        -0.202038         1.470547         2.251571
 C        -2.545841         1.102827         2.306761
 C        -1.944249        -0.039642         1.626394
 H        -0.187651        -0.687825        -0.288495
 H        -0.821974         2.499384        -0.013601
 H        -2.146591         1.471712        -0.728563
 H        -3.579062         2.667221         0.929049
 H        -1.454748         2.291271         3.973974
 H         0.318423         2.319835         1.720851
 H         0.346771         0.856132         2.899497
 H        -3.455780         1.046674         2.862393
 H        -1.478560        -0.880371         2.285741
 H        -2.663745        -0.562757         0.949315
