19
Iteration:  2767charge 0 multiplicity 1
 O         0.120159        -0.123041         0.300703
 C        -0.858568         0.710094         1.024139
 C        -1.577176         1.766816         0.207551
 C        -2.609384         2.283939         1.280134
 O        -1.958819         3.126718         2.148996
 C        -1.488240         2.063906         2.972549
 C        -0.193753         1.595322         2.363836
 C        -2.604120         1.187173         2.431644
 C        -2.003684        -0.027716         1.650555
 H         0.372885         0.420852        -0.490158
 H        -1.019361         2.595848        -0.412685
 H        -2.163113         1.197276        -0.500617
 H        -3.594808         2.729291         0.783254
 H        -1.519096         2.320640         4.095313
 H         0.450507         2.498528         2.267628
 H         0.383723         0.843722         3.069786
 H        -3.539606         1.016583         2.974050
 H        -1.617305        -0.996587         2.094529
 H        -2.740956        -0.366089         0.889735
