19
Iteration:  1832charge 0 multiplicity 1
 O         0.089128         0.054800         0.369182
 C        -0.837460         0.737268         1.090722
 C        -1.665919         1.646451         0.122803
 C        -2.662767         2.200750         1.242984
 O        -1.894178         3.164382         2.084358
 C        -1.490349         2.057131         2.928198
 C        -0.183016         1.583153         2.283918
 C        -2.598582         1.183891         2.402386
 C        -1.977007        -0.089072         1.781605
 H         0.561176         0.820710        -0.046946
 H        -1.065147         2.497312        -0.345132
 H        -2.144241         0.996304        -0.568128
 H        -3.654283         2.589249         0.827463
 H        -1.438297         2.176858         4.026798
 H         0.352439         2.411917         1.845432
 H         0.355181         0.958923         2.976170
 H        -3.437516         1.047684         3.007887
 H        -1.561701        -0.679387         2.699280
 H        -2.532903        -0.882582         1.214015
