19
Iteration:  3946charge 0 multiplicity 1
 O         0.172022        -0.003272         0.322667
 C        -0.823163         0.722326         1.023606
 C        -1.548931         1.806110         0.227154
 C        -2.611276         2.280100         1.280472
 O        -1.966069         3.244539         2.202004
 C        -1.463538         1.967196         3.021718
 C        -0.248190         1.483438         2.185411
 C        -2.667223         1.182704         2.405634
 C        -2.017965        -0.117681         1.691873
 H        -0.095221        -0.116866        -0.615310
 H        -0.978878         2.765682        -0.104208
 H        -2.093645         1.450171        -0.652859
 H        -3.589333         2.737618         0.863859
 H        -1.371778         2.096261         4.086723
 H         0.451414         2.316422         2.026556
 H         0.509339         0.760483         2.693675
 H        -3.604334         0.954641         3.015100
 H        -1.669462        -0.830944         2.408658
 H        -2.712873        -0.602079         0.985117
