19
Iteration:  2047charge 0 multiplicity 1
 O         0.084459        -0.037713         0.325823
 C        -0.770831         0.743764         1.043201
 C        -1.665732         1.698484         0.203197
 C        -2.664370         2.178879         1.250777
 O        -2.054361         3.228889         2.094499
 C        -1.475839         2.119281         2.917212
 C        -0.108902         1.653520         2.151864
 C        -2.563827         1.117610         2.449759
 C        -1.954914        -0.114190         1.835405
 H         0.654260        -0.491213         0.957453
 H        -1.186708         2.741616        -0.106241
 H        -2.238388         1.209802        -0.604938
 H        -3.653619         2.449850         0.927604
 H        -1.232146         2.436061         3.997924
 H         0.190513         2.648915         1.698558
 H         0.609460         1.160594         2.738039
 H        -3.473527         0.888810         3.046619
 H        -1.587779        -0.963145         2.463765
 H        -2.541126        -0.626526         1.059650
