19
Iteration:  3579charge 0 multiplicity 1
 O        -0.068589        -0.101973         0.262107
 C        -0.767407         0.742000         1.066032
 C        -1.515352         1.841442         0.284180
 C        -2.638381         2.233019         1.269147
 O        -2.056818         3.201341         2.196962
 C        -1.468029         2.018145         2.978303
 C        -0.164370         1.543163         2.171516
 C        -2.582953         1.127582         2.317356
 C        -1.880516        -0.036729         1.727812
 H         0.618589        -0.433952         0.878037
 H        -0.944515         2.720625         0.125266
 H        -2.076986         1.502410        -0.671164
 H        -3.555846         2.627921         0.870976
 H        -1.567843         2.276093         4.063510
 H         0.293110         2.511259         1.894415
 H         0.477043         0.894443         2.690285
 H        -3.551984         1.203727         2.860464
 H        -1.485796        -0.771390         2.368996
 H        -2.429610        -0.468370         0.924324
