19
Iteration:  2844
 O         0.104450         0.088001         0.255357
 C        -0.846270         0.716855         1.079794
 C        -1.702990         1.721824         0.301846
 C        -2.629998         2.261425         1.297005
 O        -1.865663         3.189344         2.067947
 C        -1.473242         2.089251         2.988926
 C        -0.203408         1.520262         2.345144
 C        -2.605418         1.132534         2.334029
 C        -1.995604        -0.094651         1.643289
 H         0.753182        -0.437778         0.748527
 H        -1.050210         2.475084        -0.260928
 H        -2.279766         1.172950        -0.447658
 H        -3.532493         2.824019         0.792751
 H        -1.591169         2.250744         4.121388
 H         0.357368         2.297754         1.866433
 H         0.393198         0.711392         2.798506
 H        -3.403945         0.909946         3.051738
 H        -1.747343        -0.863505         2.435431
 H        -2.661499        -0.659628         0.960466
