19
Iteration:  4750charge 0 multiplicity 1
 O         0.030245        -0.058064         0.373439
 C        -0.833387         0.744958         1.001327
 C        -1.555083         1.805363         0.159419
 C        -2.572115         2.330025         1.345170
 O        -2.070413         3.189870         2.281112
 C        -1.429020         1.954813         2.923615
 C        -0.204316         1.534265         2.154815
 C        -2.614242         1.128401         2.341015
 C        -1.987309        -0.071059         1.697935
 H         0.691363         0.464569        -0.113502
 H        -0.782350         2.622814        -0.090382
 H        -2.048389         1.259942        -0.669627
 H        -3.471650         2.743540         0.978367
 H        -1.478198         2.003377         4.036508
 H         0.628006         2.275265         1.844583
 H         0.416014         0.994267         2.958012
 H        -3.530511         0.985355         2.885703
 H        -1.318137        -0.616091         2.350914
 H        -2.556418        -0.686421         0.998149
