19
Iteration:  2462charge 0 multiplicity 1
 O         0.121294         0.088561         0.332908
 C        -0.801231         0.744188         1.090499
 C        -1.656669         1.668617         0.164036
 C        -2.634291         2.255714         1.308601
 O        -1.952791         3.223163         2.178058
 C        -1.479708         2.134885         2.891364
 C        -0.197888         1.482833         2.297508
 C        -2.612302         1.142531         2.316021
 C        -1.954321        -0.072010         1.678960
 H         0.059056        -0.846383         0.607706
 H        -1.317532         2.412587        -0.657215
 H        -2.391708         1.050035        -0.377185
 H        -3.544486         2.674998         1.020443
 H        -1.456609         2.287792         4.042843
 H         0.652874         2.128936         2.084635
 H         0.226953         0.725005         2.918300
 H        -3.422384         1.108390         2.961987
 H        -1.451080        -0.767374         2.396777
 H        -2.438243        -0.749038         0.985661
