19
Iteration:  4132
 O         0.035149        -0.062922         0.220984
 C        -0.749719         0.731469         1.014194
 C        -1.539071         1.810970         0.252068
 C        -2.582241         2.302560         1.281392
 O        -1.952982         3.266687         2.259386
 C        -1.555979         2.078562         2.956468
 C        -0.246349         1.497034         2.331549
 C        -2.635192         1.105493         2.350519
 C        -1.935231        -0.154001         1.667330
 H         0.113099         0.334715        -0.675139
 H        -0.890343         2.713845         0.023169
 H        -2.085138         1.598912        -0.631964
 H        -3.567011         2.676143         0.810609
 H        -1.583149         2.192405         4.046810
 H         0.686140         2.053371         2.138690
 H         0.005872         0.773024         3.164136
 H        -3.510147         0.909420         2.935246
 H        -1.526594        -0.844785         2.432583
 H        -2.459188        -0.851090         0.956049
