19
Iteration:  4843charge 0 multiplicity 1
 O         0.325702         0.084645         0.326015
 C        -0.808057         0.733934         1.028548
 C        -1.757740         1.750958         0.256460
 C        -2.631320         2.347867         1.293347
 O        -1.856105         3.218007         2.223873
 C        -1.521656         2.060091         2.957691
 C        -0.257960         1.421726         2.229286
 C        -2.698902         1.062617         2.331647
 C        -1.983440        -0.066542         1.645594
 H        -0.089595        -0.680990        -0.134590
 H        -1.295607         2.530749        -0.339703
 H        -2.522558         1.187457        -0.280578
 H        -3.597440         2.915692         1.024253
 H        -1.332797         2.123947         4.048373
 H         0.539114         2.105415         1.966761
 H         0.302340         0.705231         2.858885
 H        -3.685397         1.144882         2.888551
 H        -1.597136        -0.776898         2.400372
 H        -2.738539        -0.537134         0.986446
