19
Iteration:  1350
 O         0.322836         0.110091         0.392958
 C        -0.841229         0.682339         1.047043
 C        -1.638570         1.773444         0.174732
 C        -2.621936         2.260619         1.250097
 O        -1.967761         3.253053         2.123993
 C        -1.527673         2.054694         2.946943
 C        -0.314233         1.368650         2.315045
 C        -2.673334         1.179805         2.347841
 C        -1.987984        -0.066947         1.698310
 H        -0.003734        -0.674295        -0.096873
 H        -0.883488         2.544958        -0.194066
 H        -2.163457         1.493923        -0.685383
 H        -3.518400         2.813744         0.751693
 H        -1.314225         2.372021         4.009796
 H         0.644368         1.834487         1.965815
 H        -0.024250         0.644956         3.112405
 H        -3.515970         0.950412         2.920982
 H        -1.424926        -0.710897         2.440010
 H        -2.640547        -0.819456         1.271099
