19
Iteration:  1485charge 0 multiplicity 1
 O         0.070978        -0.004554         0.307636
 C        -0.793235         0.839459         1.099650
 C        -1.590275         1.747096         0.233925
 C        -2.637661         2.285701         1.219587
 O        -1.940631         3.169287         2.109731
 C        -1.565378         1.990575         2.903077
 C        -0.176921         1.493464         2.320652
 C        -2.712094         1.109985         2.300404
 C        -1.906641        -0.008776         1.771012
 H         0.950058        -0.128960         0.675007
 H        -0.926639         2.443770        -0.168277
 H        -2.044628         1.141521        -0.565933
 H        -3.486041         2.841615         0.760571
 H        -1.562621         2.057761         4.004638
 H         0.483503         2.316812         2.146297
 H         0.291519         0.882615         3.095270
 H        -3.730934         0.942755         2.772768
 H        -1.421051        -0.657473         2.531272
 H        -2.484972        -0.682729         1.010784
