19
Iteration:  1440
 O         0.237254         0.003206         0.395742
 C        -0.806469         0.677925         1.086751
 C        -1.603631         1.765299         0.210975
 C        -2.652446         2.312019         1.253918
 O        -2.021401         3.268320         2.131896
 C        -1.513062         2.062262         2.909690
 C        -0.244508         1.372555         2.260738
 C        -2.654172         1.143806         2.314886
 C        -1.971388        -0.056529         1.746064
 H         0.745019         0.561245        -0.199684
 H        -1.020787         2.580051        -0.227011
 H        -2.137606         1.255487        -0.556696
 H        -3.604040         2.726265         0.756822
 H        -1.446121         2.487113         3.943529
 H         0.692165         1.947070         2.234427
 H         0.070740         0.480683         2.834387
 H        -3.497913         0.964996         3.020366
 H        -1.719021        -0.839825         2.516319
 H        -2.615189        -0.553666         0.967484
