19
Iteration:  3392
 O         0.186729         0.126396         0.140740
 C        -0.777860         0.642473         1.062662
 C        -1.706669         1.694030         0.218261
 C        -2.665931         2.315931         1.259687
 O        -1.907138         3.213835         2.134095
 C        -1.527312         2.086324         2.909489
 C        -0.234559         1.393608         2.347995
 C        -2.642449         1.151886         2.363004
 C        -1.938936        -0.069392         1.807906
 H         0.727506        -0.566503         0.620621
 H        -1.114515         2.589385        -0.210440
 H        -2.335633         1.159684        -0.520617
 H        -3.556888         3.003996         1.085867
 H        -1.386689         2.503199         3.953954
 H         0.708811         1.957089         2.213494
 H        -0.137442         0.593698         3.069370
 H        -3.503594         1.159614         3.103580
 H        -1.731436        -0.606630         2.692181
 H        -2.642141        -0.530237         1.078585
