19
Iteration:   446
 O         0.179565        -0.061264         0.342960
 C        -0.799716         0.739287         1.060336
 C        -1.484212         1.860916         0.251368
 C        -2.591461         2.298969         1.219855
 O        -2.000157         3.190847         2.231756
 C        -1.559817         2.042970         2.974190
 C        -0.221832         1.371415         2.344237
 C        -2.694585         1.141758         2.308422
 C        -2.049462        -0.034983         1.599625
 H         0.607427         0.407862        -0.394822
 H        -0.754065         2.748972         0.023315
 H        -1.988442         1.513629        -0.673336
 H        -3.423449         2.807234         0.690778
 H        -1.523612         2.217827         4.055993
 H         0.544414         2.166583         2.313135
 H        -0.065626         0.496434         2.970343
 H        -3.658838         1.022752         2.903073
 H        -1.519960        -0.806813         2.174085
 H        -2.703419        -0.415893         0.777861
