19
Iteration:  2164charge 0 multiplicity 1
 O         0.090412        -0.168335         0.291647
 C        -0.757137         0.719659         1.044977
 C        -1.663847         1.743186         0.143670
 C        -2.774114         2.209641         1.318745
 O        -2.152061         3.300777         2.144291
 C        -1.429427         2.146388         2.877941
 C        -0.125551         1.549328         2.183797
 C        -2.545265         1.172247         2.424943
 C        -1.835160        -0.061221         1.845735
 H         0.982080         0.189260         0.433938
 H        -1.186046         2.451957        -0.432884
 H        -2.290944         1.067161        -0.442560
 H        -3.722722         2.274852         0.782461
 H        -1.392778         2.434646         3.934776
 H         0.363712         2.427134         1.843286
 H         0.410810         0.928830         2.987945
 H        -3.430184         1.146670         3.211096
 H        -1.255025        -0.703958         2.552785
 H        -2.362391        -0.805169         1.198024
