19
Iteration:  2486charge 0 multiplicity 1
 O         0.159092         0.034925         0.191065
 C        -0.804236         0.655154         1.111492
 C        -1.662615         1.732739         0.213670
 C        -2.651742         2.262765         1.215523
 O        -1.919399         3.189087         2.091214
 C        -1.541316         2.079527         2.964520
 C        -0.272415         1.456317         2.312806
 C        -2.585483         1.177944         2.424153
 C        -1.983064        -0.040345         1.781794
 H         1.029739        -0.049416         0.678978
 H        -1.100976         2.617050        -0.181879
 H        -2.179353         1.353190        -0.698175
 H        -3.570871         2.758022         0.900090
 H        -1.330440         2.330985         4.050653
 H         0.406313         2.391151         2.193044
 H         0.343085         0.775307         2.812717
 H        -3.527174         1.057920         3.045532
 H        -1.670811        -0.865857         2.446476
 H        -2.652967        -0.561973         1.066152
