19
Iteration:   248charge 0 multiplicity 1
 O         0.162093        -0.022537         0.331968
 C        -0.816450         0.757369         1.011807
 C        -1.536456         1.925178         0.201037
 C        -2.677710         2.321090         1.214394
 O        -1.988967         3.232343         2.234890
 C        -1.521207         2.011293         2.942757
 C        -0.305833         1.332780         2.284497
 C        -2.604014         1.162368         2.281041
 C        -1.960407        -0.077636         1.692781
 H         0.804261        -0.495442         0.895220
 H        -0.802510         2.781465         0.012505
 H        -1.866745         1.671443        -0.737144
 H        -3.704369         2.577682         0.897623
 H        -1.486211         1.940507         4.016177
 H         0.607085         1.932084         2.317720
 H         0.022799         0.625735         3.069104
 H        -3.480364         1.104048         2.846208
 H        -1.556252        -0.905225         2.276586
 H        -2.673429        -0.491440         0.916932
