19
Iteration:   136charge 0 multiplicity 1
 O         0.233962         0.192789         0.249511
 C        -0.809365         0.695598         1.132850
 C        -1.475216         1.724419         0.309280
 C        -2.517412         2.290716         1.245216
 O        -1.905358         3.234033         2.189745
 C        -1.612077         2.019691         3.030940
 C        -0.294552         1.304988         2.336205
 C        -2.763532         1.185255         2.280842
 C        -2.057832        -0.028102         1.579273
 H         0.132661        -0.752073         0.344817
 H        -0.763684         2.417892        -0.082796
 H        -1.986353         1.300594        -0.564414
 H        -3.391869         2.761099         0.709583
 H        -1.562499         2.207795         4.141853
 H         0.297851         2.189783         2.003630
 H         0.312347         0.513830         2.925489
 H        -3.775231         0.913624         2.711309
 H        -2.012340        -0.934760         2.229055
 H        -2.568711        -0.463312         0.706359
