19
Iteration:   111charge 0 multiplicity 1
 O         0.064453        -0.078745         0.230761
 C        -0.790877         0.804012         1.087917
 C        -1.500104         1.934808         0.183863
 C        -2.556055         2.371941         1.188049
 O        -1.952339         3.132506         2.256689
 C        -1.609021         1.951986         3.008422
 C        -0.181432         1.497816         2.485262
 C        -2.688285         1.164272         2.169974
 C        -1.979613        -0.100711         1.615710
 H         0.599176        -0.478003         0.970070
 H        -0.832919         2.690107        -0.159590
 H        -1.988859         1.574564        -0.785696
 H        -3.415638         2.923837         0.839079
 H        -1.784401         1.894378         4.094261
 H         0.553353         2.276768         2.450461
 H         0.087393         0.655269         3.056199
 H        -3.640183         1.003750         2.700690
 H        -1.729856        -0.837693         2.387794
 H        -2.405818        -0.769265         0.896822
