19
Iteration:  2200charge 0 multiplicity 1
 O         0.135206        -0.009508         0.314218
 C        -0.822615         0.694776         1.100544
 C        -1.666509         1.668947         0.263769
 C        -2.707918         2.191732         1.286568
 O        -1.947928         3.261331         2.024582
 C        -1.509916         2.128730         2.874169
 C        -0.229594         1.592712         2.218724
 C        -2.623146         1.141635         2.478658
 C        -1.849084        -0.158191         1.830549
 H         0.045728         0.375390        -0.580539
 H        -1.059342         2.416301        -0.288679
 H        -2.068602         1.064964        -0.495560
 H        -3.669467         2.558872         0.953179
 H        -1.300572         2.474595         3.932946
 H         0.322119         2.539148         1.786096
 H         0.576859         1.146149         2.874244
 H        -3.467726         1.081338         3.111729
 H        -1.475990        -0.768372         2.662809
 H        -2.421805        -0.763691         1.114369
