19
Iteration:  3951
 O         0.174851        -0.024762         0.344386
 C        -0.866609         0.691138         0.978739
 C        -1.564703         1.842600         0.258888
 C        -2.639805         2.272159         1.271648
 O        -1.965305         3.249681         2.234869
 C        -1.510415         2.006827         3.001617
 C        -0.207378         1.475688         2.205639
 C        -2.624546         1.169844         2.399559
 C        -1.973627        -0.107783         1.632910
 H        -0.138314        -0.297387        -0.528275
 H        -0.857052         2.542100        -0.080415
 H        -2.136153         1.449211        -0.653529
 H        -3.528020         2.745854         0.998211
 H        -1.369407         2.182223         4.099353
 H         0.352498         2.411721         1.960364
 H         0.428479         0.786078         2.660064
 H        -3.510927         1.000445         2.939504
 H        -1.603153        -0.794763         2.479145
 H        -2.768752        -0.547763         1.001587
