19
Iteration:  4961
 O         0.212731         0.100010         0.382015
 C        -0.806868         0.720238         1.026818
 C        -1.763246         1.820160         0.210267
 C        -2.663892         2.349306         1.348630
 O        -1.792500         3.173861         2.145307
 C        -1.473292         1.972845         2.924485
 C        -0.257468         1.462654         2.297396
 C        -2.661733         1.130761         2.306508
 C        -1.980266        -0.149341         1.713095
 H         0.052979         0.090635        -0.573791
 H        -1.250695         2.616090        -0.260161
 H        -2.454405         1.199315        -0.489098
 H        -3.568383         2.831839         1.091051
 H        -1.471259         2.340302         3.965510
 H         0.499668         2.157157         1.857446
 H         0.426653         0.715492         2.833600
 H        -3.704247         0.883406         2.737959
 H        -1.646519        -0.877222         2.501868
 H        -2.741149        -0.733815         1.104150
