19
Iteration:  2468
 O         0.131432         0.080662         0.282908
 C        -0.826585         0.791741         1.014418
 C        -1.640198         1.637776         0.170932
 C        -2.609314         2.239885         1.333912
 O        -1.929316         3.239629         2.158891
 C        -1.472141         2.128887         2.945752
 C        -0.192385         1.500831         2.312620
 C        -2.662791         1.137138         2.338492
 C        -1.956697        -0.087569         1.707775
 H         0.359782        -0.769243         0.761743
 H        -1.188952         2.337909        -0.472479
 H        -2.311767         0.985658        -0.419978
 H        -3.611989         2.682619         0.943271
 H        -1.500750         2.393118         3.950777
 H         0.605640         2.180292         1.942854
 H        -0.026679         0.679364         3.135622
 H        -3.605763         1.016698         3.004460
 H        -1.519434        -0.837690         2.369425
 H        -2.534370        -0.683601         0.949696
