19
Iteration:  2423charge 0 multiplicity 1
 O         0.141871        -0.126984         0.370431
 C        -0.819631         0.730463         1.039007
 C        -1.553657         1.812914         0.231871
 C        -2.586550         2.183454         1.271879
 O        -2.013812         3.228434         2.201787
 C        -1.492457         2.125999         2.899737
 C        -0.273142         1.580969         2.147527
 C        -2.612743         1.138184         2.441294
 C        -1.974104        -0.081142         1.727842
 H         0.205479         0.077095        -0.607681
 H        -0.906326         2.583873        -0.008692
 H        -1.906132         1.263154        -0.637423
 H        -3.637124         2.441271         0.853709
 H        -1.296697         2.397798         3.894618
 H         0.249937         2.493944         1.690970
 H         0.318028         0.853874         2.812054
 H        -3.598241         1.062372         3.085734
 H        -1.641854        -0.554383         2.651556
 H        -2.515751        -0.854039         1.131826
