19
Iteration:   128charge 0 multiplicity 1
 O         0.137394         0.130342         0.244591
 C        -0.748144         0.731514         1.086803
 C        -1.477246         1.751446         0.276405
 C        -2.542243         2.305320         1.215064
 O        -1.891602         3.188290         2.237906
 C        -1.611085         1.936878         2.976271
 C        -0.335195         1.364372         2.411664
 C        -2.728516         1.154215         2.249750
 C        -2.036791         0.023053         1.613902
 H         0.335483        -0.796052         0.454042
 H        -0.733799         2.533074        -0.175910
 H        -1.848900         1.202978        -0.567273
 H        -3.397741         2.772175         0.694269
 H        -1.618715         2.251228         4.017589
 H         0.307858         2.263626         2.185553
 H         0.414041         0.824497         3.089950
 H        -3.680006         1.053706         2.735629
 H        -1.789583        -0.788422         2.329866
 H        -2.596900        -0.329555         0.684632
