19
Iteration:  4926
 O         0.116691         0.001912         0.318849
 C        -0.758985         0.726854         0.997874
 C        -1.565264         1.800339         0.172442
 C        -2.644836         2.254034         1.297102
 O        -2.032197         3.177070         2.242121
 C        -1.478862         2.068142         2.982466
 C        -0.160069         1.437095         2.249259
 C        -2.613835         1.128877         2.367695
 C        -1.973761        -0.019693         1.719242
 H         0.008913        -0.009122        -0.638376
 H        -1.176182         2.620172        -0.416363
 H        -2.244316         1.233185        -0.563229
 H        -3.540103         2.778570         0.999664
 H        -1.225445         2.285670         4.047159
 H         0.613948         2.255041         1.974418
 H         0.188029         0.659664         3.001315
 H        -3.558212         1.129106         2.946933
 H        -1.737461        -0.856821         2.444501
 H        -2.756594        -0.426882         0.928400
