19
Iteration:  3460charge 0 multiplicity 1
 O         0.093859        -0.100310         0.278317
 C        -0.823026         0.658633         1.004820
 C        -1.564261         1.824387         0.196053
 C        -2.589576         2.368509         1.296811
 O        -2.120442         3.262360         2.302716
 C        -1.476761         2.080740         2.927422
 C        -0.215956         1.462884         2.177770
 C        -2.571468         1.195283         2.314878
 C        -1.913929        -0.079970         1.743954
 H         0.745334        -0.649969         0.758437
 H        -0.928549         2.505780        -0.170557
 H        -2.181403         1.319622        -0.598503
 H        -3.499441         2.624436         0.776670
 H        -1.419567         2.074419         4.063483
 H         0.296016         2.311752         1.692391
 H         0.303087         0.784667         2.833501
 H        -3.436242         0.901420         2.920792
 H        -1.418365        -0.668063         2.489306
 H        -2.609323        -0.634881         1.122479
