19
Iteration:   524
 O         0.175809         0.015531         0.312696
 C        -0.808991         0.764265         1.051173
 C        -1.526160         1.883773         0.283671
 C        -2.641876         2.323805         1.322719
 O        -1.977485         3.184906         2.122585
 C        -1.501570         2.037111         2.912914
 C        -0.221269         1.304515         2.343865
 C        -2.685691         1.145099         2.293502
 C        -2.077607        -0.101847         1.628520
 H         0.975667         0.217435         0.807721
 H        -0.786971         2.725072         0.044938
 H        -1.853475         1.605957        -0.747346
 H        -3.426086         2.756841         0.760559
 H        -1.522519         2.349491         3.972156
 H         0.662163         1.953038         2.192370
 H        -0.108270         0.490957         2.999926
 H        -3.618950         0.938952         2.907656
 H        -1.611513        -0.771119         2.326304
 H        -2.756145        -0.474728         0.856036
