19
Iteration:  2542charge 0 multiplicity 1
 O         0.217750        -0.223439         0.306488
 C        -0.759154         0.726333         1.044955
 C        -1.604182         1.796411         0.153730
 C        -2.621224         2.254748         1.260912
 O        -2.013002         3.258284         2.233828
 C        -1.523000         2.010200         2.976941
 C        -0.184669         1.626654         2.337130
 C        -2.579063         1.173842         2.344068
 C        -2.030778         0.009671         1.683603
 H        -0.141824        -0.350832        -0.592992
 H        -1.202610         2.647202        -0.356453
 H        -2.177507         1.114451        -0.551526
 H        -3.648611         2.624396         1.002743
 H        -1.424451         2.040181         4.088129
 H         0.335148         2.606161         2.152497
 H         0.248253         0.935816         2.913500
 H        -3.646062         1.083985         2.833951
 H        -1.584908        -0.713186         2.370192
 H        -2.825122        -0.441213         1.010401
