19
Iteration:  4371
 O         0.000428        -0.179590         0.184912
 C        -0.803819         0.750379         1.063930
 C        -1.567702         1.851263         0.275259
 C        -2.644231         2.270745         1.272522
 O        -2.025062         3.209789         2.257339
 C        -1.442227         2.048606         2.973717
 C        -0.244852         1.592540         2.265046
 C        -2.647133         1.089738         2.349504
 C        -1.860373        -0.055910         1.671676
 H         0.889339         0.164684        -0.046097
 H        -1.014588         2.823898         0.044000
 H        -1.845207         1.303637        -0.603726
 H        -3.446999         2.709397         0.666331
 H        -1.531034         2.136977         4.071115
 H         0.401230         2.435628         2.002224
 H         0.498223         0.989497         2.930703
 H        -3.453280         0.968116         3.040278
 H        -1.471426        -0.763963         2.413991
 H        -2.546000        -0.545422         1.070356
