19
Iteration:  2528charge 0 multiplicity 1
 O         0.094595        -0.150225         0.371983
 C        -0.790172         0.752285         1.014701
 C        -1.609507         1.771022         0.194159
 C        -2.596912         2.320126         1.271026
 O        -2.021811         3.222445         2.230154
 C        -1.526248         2.106602         2.943836
 C        -0.259084         1.485539         2.290961
 C        -2.584081         1.167836         2.335057
 C        -1.869215        -0.060420         1.691752
 H         0.120938         0.129388        -0.554749
 H        -0.931702         2.512190        -0.381018
 H        -2.193684         1.200922        -0.572669
 H        -3.494952         2.646387         0.827821
 H        -1.589073         2.326354         4.073278
 H         0.491990         2.193000         1.914824
 H         0.314025         0.938647         3.002842
 H        -3.451635         1.055814         2.966573
 H        -1.518232        -0.849066         2.387927
 H        -2.517241        -0.546119         0.937439
