19
Iteration:   461
 O         0.118947        -0.104338         0.410125
 C        -0.831603         0.724893         1.022115
 C        -1.464808         1.940874         0.205344
 C        -2.596893         2.402522         1.262039
 O        -2.025881         3.202954         2.314317
 C        -1.545335         1.913170         2.908502
 C        -0.284740         1.396011         2.263762
 C        -2.655003         1.178623         2.157671
 C        -1.939291        -0.080830         1.681486
 H         0.654961         0.403789        -0.202289
 H        -0.794405         2.736483         0.107987
 H        -1.847347         1.611859        -0.755454
 H        -3.533752         2.760984         0.764072
 H        -1.597650         1.996559         4.011427
 H         0.517130         2.186880         2.054966
 H         0.251483         0.734950         3.012670
 H        -3.579556         1.103540         2.726056
 H        -1.721683        -0.660258         2.663629
 H        -2.458153        -0.879229         1.144487
