19
Iteration:  4122charge 0 multiplicity 1
 O         0.059878        -0.127424         0.213583
 C        -0.837200         0.744079         1.048412
 C        -1.532097         1.834153         0.276183
 C        -2.605321         2.338958         1.303873
 O        -2.063307         3.206487         2.299915
 C        -1.488340         2.047656         2.962182
 C        -0.207474         1.461419         2.296281
 C        -2.627704         1.161073         2.266529
 C        -1.865471        -0.079094         1.697618
 H         0.107194         0.342929        -0.644012
 H        -0.820661         2.608527        -0.001960
 H        -1.847335         1.323354        -0.625901
 H        -3.517121         2.747512         0.754955
 H        -1.527997         2.194815         4.010162
 H         0.596992         2.224766         2.034468
 H         0.189577         0.634865         3.001194
 H        -3.578800         1.247809         2.691883
 H        -1.439893        -0.749928         2.418728
 H        -2.575102        -0.661730         1.063929
