19
Iteration:  4145
 O         0.116680        -0.016524         0.221856
 C        -0.860946         0.734266         1.069842
 C        -1.589373         1.867425         0.241262
 C        -2.602437         2.265795         1.288338
 O        -1.906750         3.236363         2.151313
 C        -1.510848         2.033578         2.965761
 C        -0.271250         1.403922         2.382282
 C        -2.621584         1.064041         2.369450
 C        -1.953577        -0.062984         1.695990
 H         0.213904         0.494068        -0.589585
 H        -0.968719         2.658817        -0.093115
 H        -1.974010         1.277277        -0.625718
 H        -3.543853         2.771768         0.923547
 H        -1.392984         2.320855         3.970710
 H         0.315309         2.421030         2.298587
 H         0.266473         0.548729         2.927862
 H        -3.483183         0.916832         2.985719
 H        -1.644109        -0.899904         2.315045
 H        -2.652465        -0.421684         0.889303
