19
Iteration:   744charge 0 multiplicity 1
 O         0.092402        -0.084766         0.316061
 C        -0.825340         0.786824         1.046032
 C        -1.449834         1.831581         0.211470
 C        -2.554123         2.300337         1.209175
 O        -2.085569         3.205776         2.251500
 C        -1.577110         1.972344         2.938203
 C        -0.204070         1.561796         2.319993
 C        -2.638885         1.145838         2.253021
 C        -1.884653        -0.074024         1.741031
 H        -0.491668        -0.761404        -0.033346
 H        -0.728351         2.641000        -0.069855
 H        -1.932842         1.548616        -0.774445
 H        -3.454993         2.715006         0.736676
 H        -1.386115         2.090710         4.031138
 H         0.506469         2.439054         2.158653
 H         0.246473         0.901036         3.094815
 H        -3.562012         0.863032         2.742358
 H        -1.686611        -0.800636         2.541855
 H        -2.439028        -0.585380         0.992180
