19
Iteration:  1680
 O         0.147430        -0.030908         0.206446
 C        -0.760663         0.666225         1.104194
 C        -1.562702         1.705334         0.286774
 C        -2.676364         2.270294         1.236258
 O        -2.046083         3.238574         2.114866
 C        -1.489510         2.022831         2.984778
 C        -0.188923         1.596614         2.224288
 C        -2.632017         1.163154         2.384828
 C        -2.034075        -0.113067         1.788081
 H         1.027766         0.183632         0.565450
 H        -0.853615         2.446386        -0.226098
 H        -1.952314         1.074903        -0.572194
 H        -3.627481         2.598872         0.708276
 H        -1.334321         2.308168         4.037786
 H         0.226583         2.499350         1.788728
 H         0.611612         1.243223         2.935414
 H        -3.625108         1.191690         2.839145
 H        -1.676597        -0.689207         2.607429
 H        -2.720217        -0.639664         1.185926
