19
Iteration:  4318charge 0 multiplicity 1
 O         0.186679         0.065692         0.305287
 C        -0.831696         0.722789         0.984759
 C        -1.673945         1.769948         0.191766
 C        -2.611660         2.277545         1.321841
 O        -1.888081         3.200800         2.194374
 C        -1.518820         2.011857         3.001070
 C        -0.215206         1.467962         2.256412
 C        -2.646317         1.134658         2.426943
 C        -1.968136        -0.077585         1.686451
 H         0.067473        -0.042293        -0.663493
 H        -1.150154         2.687159        -0.204690
 H        -2.162603         1.204142        -0.664041
 H        -3.618313         2.681226         0.930710
 H        -1.361556         2.306935         4.069660
 H         0.471475         2.213641         2.100884
 H         0.231659         0.747114         2.933756
 H        -3.688726         1.004660         2.708062
 H        -1.632829        -0.824227         2.459128
 H        -2.763050        -0.644591         1.036658
