19
Iteration:   768
 O         0.253078        -0.095588         0.405659
 C        -0.852845         0.714565         1.026407
 C        -1.550097         1.903124         0.261284
 C        -2.650996         2.313983         1.230894
 O        -1.958924         3.183263         2.254090
 C        -1.599117         1.992191         2.906795
 C        -0.203438         1.462073         2.245409
 C        -2.729239         1.181007         2.239113
 C        -1.931291        -0.052143         1.751623
 H         0.175179        -0.040999        -0.571781
 H        -0.957032         2.672731        -0.204050
 H        -2.219008         1.409931        -0.607334
 H        -3.528916         2.832455         0.736202
 H        -1.534810         2.137434         4.017416
 H         0.389565         2.274680         1.816105
 H         0.456993         0.877805         2.883633
 H        -3.655740         0.891005         2.770115
 H        -1.581785        -0.594367         2.657775
 H        -2.469910        -0.762579         1.142588
