19
Iteration:  1802
 O         0.251382        -0.171290         0.457398
 C        -0.729104         0.711791         1.003155
 C        -1.734009         1.775951         0.227334
 C        -2.715608         2.258196         1.294758
 O        -2.053631         3.226745         2.103782
 C        -1.509282         2.132896         2.929654
 C        -0.192583         1.504212         2.236737
 C        -2.577913         1.174289         2.421313
 C        -1.875689         0.020464         1.670188
 H         0.112226        -0.010608        -0.486151
 H        -1.413846         2.587846        -0.374898
 H        -2.499991         1.249218        -0.514161
 H        -3.706682         2.621771         0.964392
 H        -1.358211         2.264468         3.970086
 H         0.454544         2.217814         1.859602
 H         0.244186         0.848258         2.998760
 H        -3.481260         0.842930         2.905550
 H        -1.451286        -0.600794         2.425771
 H        -2.473578        -0.562051         1.007167
