19
Iteration:  2474charge 0 multiplicity 1
 O         0.156262         0.051688         0.222385
 C        -0.829493         0.783925         0.997659
 C        -1.685178         1.647826         0.192758
 C        -2.605684         2.264793         1.288323
 O        -1.919159         3.245497         2.125590
 C        -1.463664         2.097401         2.984459
 C        -0.236051         1.502230         2.330104
 C        -2.685153         1.125969         2.405368
 C        -1.951045        -0.092780         1.734155
 H         0.646298        -0.507550         0.840464
 H        -0.980749         2.419966        -0.292643
 H        -2.162492         0.964534        -0.537347
 H        -3.496637         2.618499         0.845320
 H        -1.436643         2.466546         4.081909
 H         0.568931         2.223976         2.023876
 H         0.020019         0.783912         3.051516
 H        -3.627499         0.932519         2.900871
 H        -1.626316        -0.858137         2.470166
 H        -2.648729        -0.462137         0.972608
