19
Iteration:  1341charge 0 multiplicity 1
 O         0.296713         0.135700         0.396012
 C        -0.880845         0.721966         0.985382
 C        -1.631282         1.706388         0.158769
 C        -2.603839         2.298739         1.264856
 O        -1.895488         3.200896         2.114608
 C        -1.505002         2.095346         2.966386
 C        -0.294356         1.440946         2.376827
 C        -2.648061         1.126312         2.302627
 C        -2.020921        -0.093448         1.701761
 H         0.002549        -0.679033        -0.068715
 H        -0.907770         2.530799        -0.124607
 H        -2.264645         1.265638        -0.689136
 H        -3.641462         2.606927         0.885188
 H        -1.627407         2.171109         4.089750
 H         0.491219         2.194944         2.226433
 H         0.150057         0.681207         2.968276
 H        -3.514476         0.952304         2.908932
 H        -1.769568        -0.669383         2.627398
 H        -2.741775        -0.703327         1.051311
