19
Iteration:   757
 O         0.150834        -0.098736         0.376973
 C        -0.708250         0.723092         1.056760
 C        -1.513832         1.876212         0.234918
 C        -2.636632         2.348221         1.214088
 O        -2.024624         3.199955         2.266886
 C        -1.557809         1.970324         2.934299
 C        -0.260724         1.491364         2.260445
 C        -2.694728         1.142161         2.232640
 C        -1.928112        -0.056908         1.730263
 H        -0.371233        -0.403729        -0.425723
 H        -0.874561         2.735025        -0.029616
 H        -1.790740         1.356554        -0.811839
 H        -3.579026         2.816345         0.762254
 H        -1.690486         2.056763         4.044505
 H         0.238263         2.417448         1.942296
 H         0.437492         0.843223         2.766495
 H        -3.607347         1.258405         2.856393
 H        -1.272906        -0.450537         2.540425
 H        -2.334110        -0.904066         1.225218
