19
Iteration:   119charge 0 multiplicity 1
 O         0.088147         0.022801         0.222390
 C        -0.777108         0.763815         1.101092
 C        -1.474246         1.837893         0.200793
 C        -2.563417         2.358979         1.183679
 O        -1.908309         3.121396         2.257123
 C        -1.606987         1.913679         2.956620
 C        -0.253120         1.485454         2.489285
 C        -2.689583         1.170158         2.215573
 C        -2.006605        -0.040390         1.615988
 H         0.506908        -0.700109         0.719874
 H        -0.866727         2.755136        -0.145360
 H        -1.901605         1.253450        -0.624142
 H        -3.428662         2.867801         0.786270
 H        -1.688651         1.954757         4.038850
 H         0.376997         2.363753         2.363241
 H         0.107680         0.755925         3.220769
 H        -3.608672         1.129857         2.741078
 H        -1.674480        -0.776902         2.345061
 H        -2.672887        -0.502323         0.846449
