19
Iteration:  1383charge 0 multiplicity 1
 O         0.157534        -0.079298         0.381588
 C        -0.761137         0.669904         1.140529
 C        -1.528421         1.792253         0.217017
 C        -2.606270         2.231208         1.234246
 O        -2.079720         3.220257         2.174177
 C        -1.510337         2.036679         2.951392
 C        -0.165052         1.592201         2.318453
 C        -2.630179         1.144923         2.301226
 C        -2.017148        -0.046741         1.630839
 H        -0.271174        -0.300317        -0.479971
 H        -0.924338         2.740864        -0.031213
 H        -1.885774         1.329243        -0.645483
 H        -3.590365         2.660940         0.744823
 H        -1.514270         2.340423         4.040076
 H         0.521016         2.385490         1.876485
 H         0.272635         0.901525         3.095249
 H        -3.512846         1.009856         2.869534
 H        -1.508693        -0.650075         2.416352
 H        -2.634270        -0.441059         0.830348
