19
Iteration:   972
 O         0.101770        -0.041441         0.362718
 C        -0.823342         0.753774         1.022489
 C        -1.620552         1.778852         0.218520
 C        -2.617619         2.231902         1.220387
 O        -1.999946         3.199536         2.161075
 C        -1.468705         2.069507         2.966739
 C        -0.230247         1.498847         2.337113
 C        -2.640070         1.161302         2.315949
 C        -1.932621        -0.114222         1.704201
 H         0.879352         0.522556         0.182980
 H        -1.034520         2.614522        -0.199247
 H        -2.041881         1.398532        -0.751016
 H        -3.480700         2.681718         0.784169
 H        -1.411442         2.160483         4.060830
 H         0.390546         2.324926         2.023127
 H         0.191359         0.725305         2.903468
 H        -3.553421         1.025820         2.875185
 H        -1.293413        -0.656269         2.373337
 H        -2.709360        -0.610543         1.069807
