19
Iteration:  1644
 O         0.062155        -0.199631         0.396976
 C        -0.784226         0.819708         1.027113
 C        -1.627940         1.879206         0.132157
 C        -2.652968         2.310814         1.190778
 O        -2.090322         3.176293         2.122575
 C        -1.501723         2.081568         2.984024
 C        -0.242309         1.532405         2.317625
 C        -2.552508         1.127147         2.388524
 C        -1.823291        -0.067340         1.744989
 H         0.667889         0.095356        -0.297293
 H        -1.026833         2.760242        -0.455198
 H        -1.999311         1.108928        -0.573005
 H        -3.689267         2.618853         0.934460
 H        -1.224690         2.493171         4.013937
 H         0.559497         2.323311         2.210222
 H         0.053785         0.770859         2.966302
 H        -3.472645         0.759050         2.902136
 H        -1.124469        -0.683785         2.406330
 H        -2.509944        -0.796076         1.284329
