19
Iteration:  3227
 O         0.179381         0.018694         0.238860
 C        -0.857286         0.673161         1.017152
 C        -1.672170         1.719016         0.202480
 C        -2.614553         2.278325         1.305594
 O        -1.945996         3.208573         2.173026
 C        -1.496438         2.112136         2.938355
 C        -0.303321         1.513959         2.237097
 C        -2.614728         1.139697         2.420881
 C        -1.989417        -0.098910         1.739470
 H         0.986943        -0.076374         0.752971
 H        -0.944110         2.551483        -0.099758
 H        -2.099626         1.199771        -0.594962
 H        -3.561679         2.807263         0.889414
 H        -1.155599         2.420433         3.962981
 H         0.437398         2.255023         1.841853
 H         0.279210         0.668096         2.765778
 H        -3.370374         1.133759         3.168321
 H        -1.492550        -0.724180         2.468045
 H        -2.672369        -0.638856         1.043113
