19
Iteration:  2571charge 0 multiplicity 1
 O         0.139734         0.063117         0.408629
 C        -0.887764         0.695071         1.116480
 C        -1.544036         1.807211         0.274448
 C        -2.630519         2.299852         1.228805
 O        -1.967543         3.230559         2.194168
 C        -1.475686         2.007663         2.853954
 C        -0.229285         1.463139         2.177642
 C        -2.601662         1.148625         2.325441
 C        -1.993317        -0.097194         1.701831
 H        -0.151077        -0.767467         0.034616
 H        -0.854692         2.661907        -0.105744
 H        -2.065424         1.253337        -0.524892
 H        -3.561817         2.734942         0.996766
 H        -1.386160         2.213586         3.989652
 H         0.480586         2.231601         1.772955
 H         0.347315         0.711906         2.920034
 H        -3.531719         0.954081         2.830117
 H        -1.428246        -0.732627         2.423514
 H        -2.682320        -0.563865         1.004194
