19
Iteration:  4501
 O         0.126514        -0.050578         0.257521
 C        -0.753678         0.764740         1.015887
 C        -1.575569         1.794077         0.156579
 C        -2.603439         2.334526         1.286527
 O        -2.103222         3.195844         2.326775
 C        -1.459692         2.000393         2.991041
 C        -0.229515         1.539513         2.143140
 C        -2.576696         1.110987         2.354067
 C        -1.972133        -0.016099         1.742734
 H         0.014483        -0.996961         0.500255
 H        -0.858499         2.582836        -0.251966
 H        -2.067262         1.394104        -0.719538
 H        -3.473465         2.633016         0.744886
 H        -1.324004         2.003790         4.149410
 H         0.375319         2.450729         1.780115
 H         0.185023         0.895218         2.881377
 H        -3.437520         0.988255         3.004882
 H        -1.560681        -0.841053         2.403715
 H        -2.605913        -0.484897         1.006213
