19
Iteration:  3354
 O         0.033520         0.056465         0.285703
 C        -0.840395         0.735334         1.074463
 C        -1.647168         1.728451         0.179293
 C        -2.567215         2.292264         1.271488
 O        -1.912187         3.130380         2.184840
 C        -1.483015         2.095142         2.928364
 C        -0.253725         1.522305         2.220018
 C        -2.588727         1.136013         2.384067
 C        -1.998330        -0.065825         1.745557
 H         0.769861        -0.291031         0.818836
 H        -0.800986         2.453221        -0.178546
 H        -2.040000         1.281765        -0.765182
 H        -3.485671         2.628303         0.872735
 H        -1.404493         2.179823         3.996407
 H         0.465224         2.342332         1.979281
 H         0.367258         0.994011         2.991582
 H        -3.474880         0.914341         2.922127
 H        -1.741455        -0.964041         2.402687
 H        -2.486816        -0.567343         0.915265
