19
Iteration:   155
 O         0.355901         0.169369         0.375577
 C        -0.829261         0.662729         1.011350
 C        -1.595855         1.832042         0.239525
 C        -2.617670         2.370876         1.232482
 O        -1.925420         3.217562         2.231665
 C        -1.482307         2.010130         2.891669
 C        -0.308466         1.324547         2.418687
 C        -2.654335         1.170638         2.268978
 C        -2.169214        -0.173012         1.617336
 H         0.242717        -0.574332        -0.256157
 H        -0.879301         2.529614        -0.081775
 H        -1.984369         1.477036        -0.786572
 H        -3.503486         2.861397         0.825768
 H        -1.533085         2.334958         3.945192
 H         0.632052         1.822514         2.275788
 H        -0.080722         0.657497         3.195951
 H        -3.558146         1.229373         2.950738
 H        -1.888056        -1.018431         2.269266
 H        -2.867783        -0.596108         0.915461
