19
Iteration:  1697
 O         0.212707         0.094167         0.306236
 C        -0.866724         0.679924         1.068698
 C        -1.646516         1.683830         0.163396
 C        -2.570377         2.189974         1.256203
 O        -1.955049         3.161112         2.127167
 C        -1.497049         2.130131         2.892230
 C        -0.280061         1.549711         2.189014
 C        -2.641563         1.158196         2.443552
 C        -2.028659        -0.090083         1.831301
 H         0.997958        -0.103636         0.840623
 H        -1.004010         2.557878        -0.095469
 H        -2.132813         1.293433        -0.707889
 H        -3.487826         2.608256         0.879521
 H        -1.368298         2.408347         3.969147
 H         0.440926         2.381941         1.821117
 H         0.378296         0.942716         2.790874
 H        -3.452947         1.007001         3.200073
 H        -1.838850        -1.090967         2.409424
 H        -2.712631        -0.427804         0.947042
