19
Iteration:  1140
 O         0.147529        -0.119567         0.439242
 C        -0.726104         0.749771         0.992998
 C        -1.635934         1.892483         0.190033
 C        -2.612947         2.285620         1.201428
 O        -2.051342         3.259960         2.285238
 C        -1.537524         1.998306         2.886722
 C        -0.207489         1.518183         2.258784
 C        -2.664427         1.101137         2.210435
 C        -1.847700        -0.044443         1.760886
 H        -0.434683        -0.870470         0.197402
 H        -1.110848         2.766887        -0.266401
 H        -2.038122         1.487389        -0.794853
 H        -3.545434         2.797877         0.903722
 H        -1.349923         2.161479         3.996760
 H         0.487765         2.335508         2.176089
 H         0.234885         0.837345         2.897474
 H        -3.706677         0.958416         2.707007
 H        -1.470810        -0.666523         2.600376
 H        -2.244089        -0.782864         1.105011
