19
Iteration:   644charge 0 multiplicity 1
 O         0.194264        -0.053506         0.324757
 C        -0.769634         0.713698         1.078018
 C        -1.514095         1.814592         0.285332
 C        -2.622005         2.343182         1.232717
 O        -2.031075         3.227021         2.190879
 C        -1.449080         2.024201         3.000916
 C        -0.215513         1.429801         2.408488
 C        -2.750535         1.136552         2.227871
 C        -1.987900        -0.066938         1.599991
 H        -0.180033        -0.131249        -0.574461
 H        -0.925971         2.615135        -0.327567
 H        -2.165707         1.401819        -0.557493
 H        -3.525639         2.773157         0.876921
 H        -1.407884         2.153104         4.099180
 H         0.414462         2.353504         2.238869
 H         0.299364         0.769860         3.170269
 H        -3.636830         1.113077         2.863617
 H        -1.699550        -0.783971         2.341995
 H        -2.500456        -0.502377         0.749617
