19
Iteration:  3404charge 0 multiplicity 1
 O         0.091861         0.115653         0.218150
 C        -0.842528         0.774800         1.073484
 C        -1.668500         1.692221         0.199622
 C        -2.608181         2.253225         1.278530
 O        -1.899881         3.226521         2.135911
 C        -1.436188         2.115594         2.949625
 C        -0.252304         1.455384         2.333188
 C        -2.629976         1.174189         2.382625
 C        -1.957623        -0.129368         1.737298
 H         0.533970        -0.610217         0.651659
 H        -1.105870         2.439162        -0.327342
 H        -2.173505         1.104146        -0.599392
 H        -3.541423         2.540488         0.747566
 H        -1.410468         2.275360         4.069406
 H         0.696237         2.071279         2.266685
 H         0.010507         0.617502         2.971454
 H        -3.590514         0.930111         2.911495
 H        -1.555474        -0.938198         2.306706
 H        -2.617532        -0.641236         1.005132
