19
Iteration:  1790
 O         0.269316        -0.157979         0.409474
 C        -0.767137         0.708419         1.046399
 C        -1.663112         1.805151         0.181870
 C        -2.750376         2.251406         1.316753
 O        -2.115890         3.265770         2.195508
 C        -1.451391         2.120141         2.834484
 C        -0.181355         1.523021         2.207766
 C        -2.601156         1.168435         2.338066
 C        -1.934068        -0.055775         1.763736
 H         0.098828        -0.399489        -0.523713
 H        -1.051559         2.689136        -0.067262
 H        -2.071308         1.192542        -0.707268
 H        -3.750543         2.562076         0.909022
 H        -1.435780         2.401638         3.870122
 H         0.478997         2.271747         1.956088
 H         0.374481         0.881881         2.870064
 H        -3.258779         1.138110         3.149579
 H        -1.557642        -0.709833         2.560768
 H        -2.525314        -0.720488         1.164327
