19
Iteration:  2931charge 0 multiplicity 1
 O         0.143947        -0.159481         0.325157
 C        -0.809323         0.768889         0.963879
 C        -1.584387         1.897646         0.145652
 C        -2.611925         2.282234         1.322637
 O        -2.107659         3.177519         2.235094
 C        -1.423726         2.017369         2.937576
 C        -0.172405         1.575103         2.208035
 C        -2.625003         1.149117         2.363154
 C        -1.899149        -0.028699         1.769112
 H        -0.217893        -1.035660         0.507729
 H        -0.966173         2.734683        -0.403721
 H        -2.323010         1.581213        -0.619025
 H        -3.643004         2.659998         0.819785
 H        -1.529904         2.106773         4.060792
 H         0.381492         2.475275         2.023606
 H         0.548590         0.946919         2.714951
 H        -3.595249         1.056618         2.896757
 H        -1.516775        -0.830925         2.477890
 H        -2.630759        -0.641407         1.163094
