19
Iteration:  1259charge 0 multiplicity 1
 O         0.164798        -0.105055         0.402961
 C        -0.739132         0.721736         1.104099
 C        -1.506142         1.801713         0.282965
 C        -2.675276         2.241278         1.253603
 O        -2.097615         3.216311         2.190757
 C        -1.507983         2.105256         2.905009
 C        -0.164320         1.528259         2.201944
 C        -2.637168         1.170741         2.316349
 C        -1.985314        -0.091821         1.682979
 H         0.079043         0.104165        -0.547244
 H        -0.954663         2.677841        -0.020267
 H        -1.798222         1.499876        -0.657550
 H        -3.623392         2.499493         0.788211
 H        -1.449022         2.222421         4.024082
 H         0.616286         2.261469         1.882915
 H         0.240826         0.801705         3.051425
 H        -3.657720         1.223839         2.859756
 H        -1.672595        -0.951898         2.331404
 H        -2.698133        -0.566629         0.958173
