19
Iteration:  1392charge 0 multiplicity 1
 O         0.109130        -0.121211         0.383682
 C        -0.773879         0.714498         1.108006
 C        -1.493818         1.786789         0.239776
 C        -2.565240         2.249295         1.189343
 O        -2.026057         3.179734         2.195730
 C        -1.555942         2.079534         2.994400
 C        -0.237392         1.607274         2.291511
 C        -2.674452         1.130062         2.355435
 C        -1.927079        -0.042383         1.628273
 H        -0.256235        -0.183170        -0.532275
 H        -1.047998         2.755121        -0.130547
 H        -1.808646         1.174815        -0.556992
 H        -3.537980         2.576002         0.762923
 H        -1.472728         2.279556         4.066936
 H         0.260438         2.575958         1.908906
 H         0.608429         1.202946         2.965818
 H        -3.673751         1.103201         2.724041
 H        -1.648592        -0.972983         2.176521
 H        -2.444216        -0.472974         0.800119
