19
Iteration:   511
 O         0.102604        -0.064179         0.312482
 C        -0.811980         0.750329         1.086210
 C        -1.528338         1.837845         0.217725
 C        -2.594310         2.285541         1.159240
 O        -2.015694         3.240020         2.273442
 C        -1.546929         2.055520         2.969186
 C        -0.203125         1.389742         2.378810
 C        -2.618412         1.125432         2.319423
 C        -1.999261        -0.024655         1.554248
 H         1.026721         0.008405         0.631407
 H        -0.874382         2.757421        -0.076498
 H        -1.957351         1.277509        -0.636790
 H        -3.575877         2.633358         0.838695
 H        -1.514453         2.210040         4.060552
 H         0.614015         2.077353         2.183431
 H         0.272967         0.638036         3.038721
 H        -3.636396         1.085446         2.821568
 H        -1.911347        -0.966586         1.987906
 H        -2.637700        -0.289793         0.685678
