19
Iteration:   345charge 0 multiplicity 1
 O         0.040296        -0.099830         0.328267
 C        -0.778060         0.705844         1.048401
 C        -1.410034         1.841264         0.338554
 C        -2.644798         2.222555         1.280522
 O        -2.084446         3.222985         2.248182
 C        -1.528227         1.966525         2.931822
 C        -0.153241         1.526199         2.341260
 C        -2.620118         1.140523         2.283805
 C        -2.003296         0.083814         1.476183
 H         0.844322        -0.384268         0.790093
 H        -0.831443         2.809995        -0.037161
 H        -1.818005         1.308333        -0.615414
 H        -3.651096         2.459873         0.832898
 H        -1.475019         2.095621         4.015662
 H         0.468499         2.408067         1.963414
 H         0.494973         0.814125         2.981470
 H        -3.501309         0.989407         2.798174
 H        -1.876870        -0.806931         2.090374
 H        -2.728641        -0.224764         0.678413
