19
Iteration:  2274
 O         0.070306        -0.095640         0.217746
 C        -0.724968         0.734862         1.103772
 C        -1.632117         1.712574         0.231971
 C        -2.735476         2.230342         1.273883
 O        -2.049422         3.198946         2.137161
 C        -1.472769         2.093219         2.877700
 C        -0.144505         1.616915         2.187061
 C        -2.626033         1.145967         2.421081
 C        -1.920621        -0.064092         1.866656
 H         0.944142        -0.178613         0.687445
 H        -1.119700         2.617083        -0.101159
 H        -1.883062         1.123273        -0.739043
 H        -3.671289         2.605854         0.818769
 H        -1.235398         2.429032         3.927176
 H         0.180968         2.532497         1.703250
 H         0.574488         1.253134         2.961884
 H        -3.569504         1.147576         3.049579
 H        -1.422903        -0.875906         2.468052
 H        -2.490041        -0.667551         1.121611
