19
Iteration:  4193
 O         0.158117        -0.003117         0.305687
 C        -0.847502         0.639791         0.991725
 C        -1.698821         1.790049         0.222912
 C        -2.596621         2.392777         1.314669
 O        -1.892707         3.218994         2.236954
 C        -1.581478         2.014438         3.034440
 C        -0.278633         1.431537         2.230259
 C        -2.596542         1.184312         2.336450
 C        -1.926729        -0.106546         1.625376
 H         1.019238         0.421576         0.120632
 H        -1.083086         2.532080        -0.356323
 H        -2.406792         1.329616        -0.506662
 H        -3.518738         2.863391         1.102324
 H        -1.366271         2.086234         4.142275
 H         0.402575         2.264825         1.825233
 H         0.227378         0.698547         2.878739
 H        -3.575250         1.044375         2.891421
 H        -1.461457        -0.890366         2.304783
 H        -2.595927        -0.679992         0.973381
