19
Iteration:  4753
 O         0.038419        -0.091087         0.354930
 C        -0.803640         0.756581         0.988447
 C        -1.561767         1.824433         0.185224
 C        -2.557761         2.334609         1.339868
 O        -2.083662         3.175624         2.283802
 C        -1.432584         1.998204         2.943463
 C        -0.215731         1.520258         2.161707
 C        -2.623306         1.119524         2.323159
 C        -1.974443        -0.055749         1.702604
 H         0.587932         0.444558        -0.242267
 H        -0.823074         2.482043        -0.115829
 H        -2.084252         1.333669        -0.665181
 H        -3.474464         2.696386         0.943632
 H        -1.442874         2.008569         4.061774
 H         0.543634         2.361235         1.921945
 H         0.352374         0.902650         2.916237
 H        -3.583926         1.116871         2.958588
 H        -1.346810        -0.660304         2.377693
 H        -2.410955        -0.735910         1.020878
