19
Iteration:  2637
 O         0.112302         0.054264         0.350660
 C        -0.911755         0.719603         1.072979
 C        -1.605748         1.839583         0.156500
 C        -2.600248         2.360707         1.211273
 O        -1.926511         3.162716         2.222777
 C        -1.503489         2.065442         2.980146
 C        -0.173473         1.474856         2.271149
 C        -2.630542         1.125985         2.290795
 C        -1.960865        -0.134629         1.740770
 H        -0.120909        -0.892840         0.247817
 H        -0.794635         2.539190        -0.212626
 H        -2.033836         1.346675        -0.710604
 H        -3.562367         2.593040         0.855534
 H        -1.371334         2.338894         4.088527
 H         0.467890         2.263620         1.797329
 H         0.262297         0.727516         3.069706
 H        -3.624154         1.004047         2.729127
 H        -1.457346        -0.846938         2.437331
 H        -2.530822        -0.673875         0.968746
