19
Iteration:   821charge 0 multiplicity 1
 O         0.157289         0.035028         0.273867
 C        -0.859475         0.754214         1.052249
 C        -1.588330         1.788150         0.231678
 C        -2.691146         2.266911         1.289863
 O        -1.902941         3.180997         2.065926
 C        -1.533484         2.003783         2.890683
 C        -0.241597         1.437013         2.423102
 C        -2.680378         1.193209         2.328204
 C        -1.962730        -0.113166         1.722896
 H         1.086372         0.291960         0.403803
 H        -1.097343         2.693140         0.025996
 H        -1.925173         1.216165        -0.546327
 H        -3.524182         2.819280         0.831382
 H        -1.489371         2.423019         3.923637
 H         0.646625         2.117971         2.331576
 H         0.044884         0.575465         3.075755
 H        -3.515904         1.104613         3.039971
 H        -1.656290        -0.849043         2.470713
 H        -2.385185        -0.531087         0.860405
