19
Iteration:   449charge 0 multiplicity 1
 O         0.174687        -0.078485         0.359565
 C        -0.813327         0.750044         1.030331
 C        -1.477289         1.876549         0.258967
 C        -2.580221         2.323121         1.220290
 O        -2.016893         3.191700         2.243711
 C        -1.545472         2.011997         2.934198
 C        -0.248289         1.390130         2.358337
 C        -2.683828         1.138499         2.276606
 C        -2.047344        -0.036861         1.622289
 H         0.597790         0.445500        -0.364425
 H        -0.749429         2.647412         0.045597
 H        -1.911388         1.557010        -0.681765
 H        -3.497702         2.816826         0.851269
 H        -1.471937         2.112080         4.037051
 H         0.577723         2.174140         2.222037
 H        -0.016377         0.448575         2.897789
 H        -3.630696         1.053444         2.889188
 H        -1.452925        -0.717853         2.344534
 H        -2.650887        -0.513724         0.825208
