19
Iteration:  1550charge 0 multiplicity 1
 O         0.147966         0.000875         0.379137
 C        -0.792711         0.734173         1.142799
 C        -1.671668         1.831122         0.195162
 C        -2.699832         2.231091         1.230866
 O        -1.968578         3.178272         2.088387
 C        -1.498086         2.057425         2.919624
 C        -0.099939         1.591073         2.369649
 C        -2.601446         1.090573         2.288624
 C        -1.952314        -0.065967         1.695780
 H        -0.182004        -0.927014         0.393458
 H        -1.145649         2.697004        -0.017544
 H        -1.961565         1.322166        -0.718202
 H        -3.789035         2.508935         1.025001
 H        -1.550120         2.363462         3.979846
 H         0.580373         2.368010         2.003159
 H         0.482207         0.806936         3.010161
 H        -3.625978         0.987754         2.758747
 H        -1.614240        -0.957195         2.234919
 H        -2.693171        -0.383992         0.865820
