19
Iteration:  2665charge 0 multiplicity 1
 O         0.264186        -0.138011         0.308707
 C        -0.782929         0.718067         0.985831
 C        -1.593328         1.826341         0.230847
 C        -2.653679         2.331158         1.323449
 O        -2.050550         3.269165         2.273514
 C        -1.522812         2.034702         2.914868
 C        -0.161991         1.470791         2.192030
 C        -2.670580         1.205956         2.329549
 C        -2.010876        -0.063464         1.726333
 H        -0.179467        -0.927159        -0.034717
 H        -0.918276         2.680121         0.079812
 H        -1.969626         1.487507        -0.762213
 H        -3.712600         2.414217         0.855879
 H        -1.432104         2.113633         3.956523
 H         0.560400         2.243904         2.013121
 H         0.278414         0.908444         2.966900
 H        -3.577451         1.252753         2.927930
 H        -1.508447        -0.728780         2.434541
 H        -2.628011        -0.540948         0.940409
