19
Iteration:  3929
 O         0.155755         0.082719         0.256355
 C        -0.817930         0.759743         1.050505
 C        -1.632600         1.758555         0.225911
 C        -2.616059         2.256647         1.263585
 O        -1.905243         3.115697         2.208222
 C        -1.482651         2.011765         2.878318
 C        -0.167227         1.418481         2.341066
 C        -2.672931         1.163302         2.335812
 C        -2.062514        -0.048536         1.785510
 H         0.116166         0.542130        -0.617862
 H        -0.969285         2.442658        -0.200860
 H        -2.080161         1.174591        -0.637175
 H        -3.490474         2.787619         0.978002
 H        -1.353512         2.278400         3.956273
 H         0.526678         2.251623         2.061266
 H         0.202283         0.739607         3.035374
 H        -3.525948         1.269100         2.934959
 H        -1.742225        -0.763904         2.650743
 H        -2.692110        -0.459785         0.966191
