19
Iteration:  2304
 O         0.075055        -0.164682         0.359657
 C        -0.806907         0.776243         1.026635
 C        -1.716890         1.795306         0.151986
 C        -2.625340         2.204236         1.274852
 O        -2.077992         3.220725         2.153904
 C        -1.482570         2.162125         2.911479
 C        -0.190941         1.574509         2.279560
 C        -2.513524         1.143743         2.342014
 C        -1.800014        -0.121476         1.840961
 H         0.413735         0.205869        -0.462990
 H        -1.214591         2.652296        -0.215598
 H        -2.228978         1.238319        -0.719492
 H        -3.681520         2.514050         0.929197
 H        -1.295913         2.481842         3.892954
 H         0.452343         2.326770         1.995137
 H         0.105700         0.912274         3.084114
 H        -3.575574         1.211599         2.825350
 H        -1.342126        -0.815800         2.528291
 H        -2.380807        -0.763972         1.126570
