19
Iteration:   853charge 0 multiplicity 1
 O         0.101240        -0.037137         0.235855
 C        -0.844346         0.734502         1.067411
 C        -1.483590         1.740801         0.173545
 C        -2.507469         2.321434         1.275934
 O        -2.076940         3.186472         2.260310
 C        -1.546472         2.029998         2.987818
 C        -0.224991         1.544772         2.227096
 C        -2.683247         1.194249         2.239135
 C        -1.904197        -0.102387         1.778421
 H         0.685067        -0.478019         0.904747
 H        -0.884714         2.587395        -0.239448
 H        -2.161704         1.344535        -0.648861
 H        -3.367482         2.750616         0.766818
 H        -1.589677         2.159797         4.117155
 H         0.335951         2.508373         1.987586
 H         0.307312         0.823019         2.918973
 H        -3.645428         1.044104         2.745334
 H        -1.672673        -0.780629         2.626107
 H        -2.494042        -0.626981         1.012224
