19
Iteration:   194charge 0 multiplicity 1
 O         0.066008        -0.114523         0.373930
 C        -0.758332         0.790080         1.079136
 C        -1.537550         1.827913         0.198783
 C        -2.561729         2.333319         1.234728
 O        -1.903701         3.147868         2.235136
 C        -1.571758         2.006181         2.991379
 C        -0.240615         1.544777         2.439986
 C        -2.687854         1.088391         2.220308
 C        -1.997928        -0.069974         1.546606
 H         0.367547         0.341491        -0.447754
 H        -0.887982         2.720064        -0.121433
 H        -2.078844         1.400438        -0.600565
 H        -3.435386         2.843810         0.809395
 H        -1.584384         2.113399         4.069905
 H         0.238140         2.547798         2.341060
 H         0.387899         0.868804         3.132959
 H        -3.579585         0.937447         2.764738
 H        -1.639649        -0.810028         2.264209
 H        -2.541912        -0.472859         0.644013
