19
Iteration:  2166
 O         0.086780        -0.155806         0.290138
 C        -0.764499         0.714150         1.032809
 C        -1.663352         1.734262         0.143475
 C        -2.762774         2.205888         1.313443
 O        -2.162183         3.294906         2.150877
 C        -1.437860         2.141458         2.872915
 C        -0.121802         1.541310         2.189995
 C        -2.534132         1.183114         2.433171
 C        -1.848622        -0.070081         1.844714
 H         0.982731         0.246617         0.369869
 H        -1.104429         2.447272        -0.473983
 H        -2.213325         1.024512        -0.408261
 H        -3.696847         2.267153         0.800540
 H        -1.346552         2.476788         3.961892
 H         0.409953         2.513861         1.850998
 H         0.448630         0.923690         3.002651
 H        -3.418995         1.196853         3.144542
 H        -1.285354        -0.652460         2.622797
 H        -2.410722        -0.791515         1.227878
