19
Iteration:  3643
 O         0.141227         0.219727         0.266005
 C        -0.845840         0.786661         1.016294
 C        -1.677335         1.682735         0.140345
 C        -2.632789         2.260373         1.313474
 O        -1.815781         3.089592         2.089146
 C        -1.461363         2.013870         2.960467
 C        -0.227891         1.496943         2.314728
 C        -2.629227         1.158368         2.414070
 C        -2.063991        -0.092278         1.796790
 H         0.573429        -0.532829         0.667240
 H        -1.187011         2.350922        -0.491825
 H        -2.139837         1.097379        -0.646411
 H        -3.549105         2.701881         0.929841
 H        -1.290504         2.288267         3.977821
 H         0.427046         2.324601         2.021183
 H         0.283764         0.661449         2.898443
 H        -3.587728         1.044474         2.939650
 H        -1.963730        -0.772451         2.646644
 H        -2.733338        -0.503741         1.022095
