19
Iteration:  4896
 O         0.107239        -0.073677         0.250925
 C        -0.779528         0.652900         0.989546
 C        -1.440617         1.854665         0.298642
 C        -2.753002         2.326543         1.338897
 O        -2.088220         3.309045         2.211581
 C        -1.496657         2.053702         2.952749
 C        -0.189481         1.453675         2.182817
 C        -2.624148         1.086688         2.351891
 C        -1.879821        -0.088807         1.723227
 H        -0.315545        -0.495318        -0.530183
 H        -0.894743         2.734271         0.308020
 H        -1.732222         1.618444        -0.746350
 H        -3.616950         2.767548         0.939020
 H        -1.221732         2.104696         4.017057
 H         0.402924         2.372670         1.991133
 H         0.222418         0.861529         3.050090
 H        -3.466162         0.966603         3.114394
 H        -1.620187        -0.853058         2.417058
 H        -2.531498        -0.633193         1.111201
