19
Iteration:  1730
 O         0.193158         0.006910         0.309216
 C        -0.723750         0.763655         1.125241
 C        -1.864759         1.750506         0.168952
 C        -2.680186         2.297087         1.262522
 O        -1.966761         3.184481         2.091783
 C        -1.532902         2.122137         2.863410
 C        -0.162515         1.463239         2.350557
 C        -2.634749         1.132351         2.330400
 C        -1.819708        -0.037293         1.749774
 H         0.268781        -0.908335         0.615514
 H        -1.436198         2.519147        -0.497397
 H        -2.321708         1.037744        -0.461417
 H        -3.579719         2.748325         0.854194
 H        -1.524024         2.461064         3.936221
 H         0.742836         2.177463         2.283846
 H         0.114804         0.638143         3.049219
 H        -3.407258         0.915465         3.134335
 H        -1.477004        -0.680664         2.648659
 H        -2.403633        -0.581090         0.928673
