19
Iteration:   864
 O         0.111466        -0.060693         0.268181
 C        -0.737111         0.724914         1.042742
 C        -1.499138         1.733709         0.205934
 C        -2.564138         2.306983         1.195722
 O        -2.090958         3.213882         2.329437
 C        -1.535243         2.038864         2.956152
 C        -0.253572         1.620312         2.260637
 C        -2.636520         1.155841         2.328308
 C        -2.001116        -0.074149         1.660576
 H         0.464046        -0.797426         0.840107
 H        -0.702208         2.311971        -0.327715
 H        -2.110484         1.153653        -0.594927
 H        -3.467862         2.701684         0.725331
 H        -1.458632         2.071569         4.091001
 H         0.431455         2.457502         1.883943
 H         0.468502         1.040942         2.925620
 H        -3.532094         1.283495         2.953721
 H        -1.587518        -0.827931         2.379348
 H        -2.544855        -0.638063         0.886958
