19
Iteration:  1803charge 0 multiplicity 1
 O         0.245692        -0.167759         0.460709
 C        -0.738376         0.721565         1.003137
 C        -1.744004         1.772304         0.227244
 C        -2.708636         2.260140         1.291685
 O        -2.043980         3.224636         2.097430
 C        -1.508111         2.128823         2.938403
 C        -0.194734         1.509783         2.239108
 C        -2.581839         1.170312         2.421339
 C        -1.862323         0.020799         1.673130
 H         0.126206         0.017508        -0.485897
 H        -1.409606         2.555304        -0.376291
 H        -2.518702         1.214668        -0.500091
 H        -3.675166         2.606960         0.939451
 H        -1.334578         2.279133         3.977219
 H         0.481352         2.256560         1.853935
 H         0.229086         0.816110         3.014013
 H        -3.531765         0.810420         2.879913
 H        -1.461948        -0.654800         2.366240
 H        -2.495971        -0.536218         1.005945
