19
Iteration:    62
 O         0.219522        -0.025366         0.414171
 C        -0.807576         0.675022         1.086686
 C        -1.471248         1.829572         0.211124
 C        -2.490830         2.331423         1.252088
 O        -2.027380         3.203937         2.278566
 C        -1.516880         2.016692         3.051957
 C        -0.185916         1.403299         2.394989
 C        -2.718267         1.145470         2.200747
 C        -2.172580        -0.080341         1.491751
 H         0.266546         0.370082        -0.475216
 H        -0.764633         2.760901        -0.036923
 H        -1.865257         1.592601        -0.774950
 H        -3.449894         2.750965         0.848888
 H        -1.423036         2.313377         4.115895
 H         0.390775         2.291047         2.005095
 H         0.536096         0.796912         3.054363
 H        -3.801117         1.059574         2.519329
 H        -2.150209        -1.109794         1.923473
 H        -2.877260        -0.262667         0.605608
