19
Iteration:  2899
 O         0.138917         0.015635         0.210083
 C        -0.778298         0.675542         1.087635
 C        -1.597234         1.746139         0.263398
 C        -2.647022         2.264068         1.291986
 O        -1.978388         3.297155         2.229060
 C        -1.464175         2.118846         2.885505
 C        -0.236097         1.568587         2.284624
 C        -2.668019         1.125623         2.354025
 C        -1.939491        -0.193306         1.721589
 H        -0.004626        -0.960503         0.161409
 H        -0.829943         2.433382        -0.208975
 H        -2.180767         1.177044        -0.486987
 H        -3.619258         2.752207         0.814348
 H        -1.369083         2.180572         4.034280
 H         0.422858         2.366810         1.867139
 H         0.457139         1.008705         2.936267
 H        -3.551572         1.051066         3.027111
 H        -1.734653        -1.032448         2.433999
 H        -2.619054        -0.358034         0.856074
