19
Iteration:  2282charge 0 multiplicity 1
 O        -0.005936        -0.115365         0.282247
 C        -0.832921         0.804394         1.060674
 C        -1.556167         1.715852         0.235523
 C        -2.721189         2.185597         1.257378
 O        -2.082577         3.209564         2.123274
 C        -1.474104         2.071356         2.900425
 C        -0.114049         1.610250         2.188638
 C        -2.603249         1.123649         2.431102
 C        -1.836143        -0.004969         1.822772
 H         0.960609         0.070012         0.392282
 H        -0.980378         2.531065        -0.132017
 H        -1.815290         0.976391        -0.626800
 H        -3.547657         2.753147         0.710952
 H        -1.331017         2.277616         3.921658
 H         0.248572         2.477546         1.753803
 H         0.486542         1.055199         2.891101
 H        -3.455538         0.842032         3.181601
 H        -1.415018        -0.658966         2.581102
 H        -2.520641        -0.626158         1.202302
