19
Iteration:  1801
 O         0.256367        -0.173992         0.453856
 C        -0.721787         0.703800         1.004447
 C        -1.725771         1.777693         0.225962
 C        -2.722028         2.256045         1.298075
 O        -2.062454         3.229272         2.110857
 C        -1.509533         2.136061         2.919447
 C        -0.192267         1.498495         2.234812
 C        -2.574405         1.177268         2.419182
 C        -1.888485         0.019917         1.668790
 H         0.103210        -0.041691        -0.492105
 H        -1.407275         2.629258        -0.377629
 H        -2.465954         1.283384        -0.518421
 H        -3.734143         2.634274         0.986196
 H        -1.380850         2.258518         3.974844
 H         0.445469         2.198369         1.863295
 H         0.262318         0.877292         2.981815
 H        -3.436424         0.876925         2.937750
 H        -1.438002        -0.561351         2.489526
 H        -2.460276        -0.591822         1.002833
