19
Iteration:  1084
 O         0.217056         0.083284         0.423345
 C        -0.809011         0.726359         1.083052
 C        -1.642869         1.720038         0.200537
 C        -2.673555         2.230868         1.230917
 O        -1.940795         3.181308         2.061941
 C        -1.501429         2.092466         2.950620
 C        -0.230671         1.404695         2.370474
 C        -2.618077         1.150834         2.396969
 C        -1.992077        -0.048365         1.621108
 H         0.000836         0.202310        -0.534549
 H        -0.950507         2.486849        -0.168006
 H        -2.212210         1.110140        -0.552617
 H        -3.551764         2.799495         0.942502
 H        -1.513691         2.433139         4.022629
 H         0.519992         2.140728         2.175505
 H         0.102002         0.598671         2.887963
 H        -3.420043         1.084032         3.228593
 H        -1.614583        -0.774812         2.311589
 H        -2.589325        -0.355810         0.806661
