19
Iteration:  4189
 O         0.175961         0.005396         0.328155
 C        -0.840970         0.692100         0.992219
 C        -1.700563         1.777845         0.204030
 C        -2.609721         2.427791         1.331245
 O        -1.888468         3.218528         2.225118
 C        -1.529950         1.985484         3.007086
 C        -0.281524         1.402966         2.243202
 C        -2.606792         1.179788         2.339572
 C        -1.953229        -0.137153         1.649263
 H         0.930902         0.564275         0.087016
 H        -1.139803         2.468104        -0.357363
 H        -2.434956         1.286241        -0.489954
 H        -3.639030         2.831313         1.071787
 H        -1.395686         2.093865         4.055434
 H         0.402965         2.222934         1.768530
 H         0.277329         0.709794         2.975230
 H        -3.594994         0.985835         2.777192
 H        -1.458688        -0.863070         2.274258
 H        -2.699504        -0.547766         0.916395
