19
Iteration:  3438
 O         0.129731        -0.132144         0.256054
 C        -0.768209         0.741700         0.999235
 C        -1.611967         1.823489         0.262121
 C        -2.685963         2.276501         1.262597
 O        -1.975516         3.197858         2.245341
 C        -1.463126         2.052954         2.927607
 C        -0.143501         1.614670         2.177443
 C        -2.689640         1.133949         2.345026
 C        -2.011756        -0.069326         1.751870
 H         0.500235        -0.747646         0.927732
 H        -1.000200         2.596313         0.083477
 H        -1.997526         1.381139        -0.686477
 H        -3.599200         2.764299         0.895548
 H        -1.229867         2.086802         4.051156
 H         0.401195         2.545349         1.877268
 H         0.239461         0.968118         2.950439
 H        -3.611762         1.024225         2.989843
 H        -1.663093        -0.802728         2.449530
 H        -2.445723        -0.473845         0.848683
