19
Iteration:  2099charge 0 multiplicity 1
 O         0.214251         0.107300         0.167353
 C        -0.809195         0.646069         1.066057
 C        -1.687280         1.589382         0.269919
 C        -2.690617         2.225006         1.298080
 O        -2.034660         3.250920         2.088036
 C        -1.434157         2.206893         2.837977
 C        -0.239362         1.578828         2.274037
 C        -2.625572         1.201669         2.369267
 C        -1.900519        -0.153843         1.887259
 H         0.480721        -0.788778         0.417905
 H        -1.189507         2.168137        -0.439189
 H        -2.468320         0.928000        -0.133483
 H        -3.720518         2.516003         1.064390
 H        -1.275326         2.453773         3.932630
 H         0.553974         2.293090         1.888666
 H         0.308827         0.881328         3.083632
 H        -3.495643         1.102316         3.196732
 H        -1.350488        -0.637537         2.718411
 H        -2.503609        -0.881672         1.265283
