19
Iteration:  4461charge 0 multiplicity 1
 O         0.028602         0.112592         0.167188
 C        -0.826375         0.761179         1.107745
 C        -1.578439         1.795372         0.233347
 C        -2.617443         2.264385         1.287215
 O        -1.960468         3.173794         2.147033
 C        -1.504343         1.993213         2.903817
 C        -0.212523         1.486251         2.334818
 C        -2.629428         1.122945         2.350528
 C        -1.886070        -0.057458         1.768488
 H         0.386635        -0.680014         0.591077
 H        -0.999530         2.599802        -0.159458
 H        -2.053899         1.149148        -0.573995
 H        -3.577054         2.805671         0.976062
 H        -1.523350         2.163621         3.935226
 H         0.573694         2.096936         2.026593
 H         0.308979         0.622862         3.022557
 H        -3.504126         0.901541         3.028687
 H        -1.633011        -0.809373         2.481551
 H        -2.442891        -0.531819         0.931085
