19
Iteration:  1415charge 0 multiplicity 1
 O         0.162245        -0.116145         0.417460
 C        -0.804542         0.695195         1.059711
 C        -1.551789         1.775384         0.153609
 C        -2.578579         2.341631         1.242176
 O        -2.022474         3.223595         2.214340
 C        -1.559304         1.969869         2.937231
 C        -0.232577         1.617678         2.269649
 C        -2.646335         1.124800         2.280628
 C        -1.954133        -0.046362         1.716671
 H         0.197069         0.099306        -0.518605
 H        -0.977693         2.676525        -0.230418
 H        -2.025321         1.287294        -0.634761
 H        -3.558367         2.737925         0.824098
 H        -1.624735         2.083800         4.044171
 H         0.526768         2.451981         2.136556
 H         0.285780         0.880509         2.969311
 H        -3.517432         0.966244         2.866512
 H        -1.546550        -0.636104         2.566796
 H        -2.495659        -0.727069         1.082685
