19
Iteration:   477charge 0 multiplicity 1
 O         0.080564        -0.210994         0.343492
 C        -0.756257         0.711597         1.046454
 C        -1.511732         1.937264         0.236970
 C        -2.531484         2.404485         1.145224
 O        -1.995838         3.204658         2.387582
 C        -1.681374         1.967820         2.976543
 C        -0.176815         1.520396         2.268461
 C        -2.748445         1.117985         2.187949
 C        -1.944455        -0.092135         1.692552
 H         0.852888         0.361988         0.200298
 H        -0.736201         2.693300        -0.165224
 H        -2.014844         1.626090        -0.711370
 H        -3.368516         3.073479         0.875287
 H        -1.564179         1.908633         4.056891
 H         0.266849         2.433889         1.895864
 H         0.575017         0.838781         2.736580
 H        -3.763828         0.952197         2.598560
 H        -1.442284        -0.653066         2.431992
 H        -2.389584        -0.671840         0.869071
