19
Iteration:  4852
 O         0.222445         0.072688         0.341587
 C        -0.830451         0.768658         1.063291
 C        -1.710917         1.732649         0.147433
 C        -2.631652         2.336786         1.337562
 O        -1.891578         3.232717         2.272803
 C        -1.528958         2.001633         2.900933
 C        -0.196437         1.439047         2.290155
 C        -2.648332         1.114439         2.332316
 C        -1.948436        -0.027619         1.630979
 H        -0.181701        -0.734104        -0.045891
 H        -1.132204         2.278371        -0.510173
 H        -2.404647         1.133887        -0.485221
 H        -3.568321         2.754212         1.113492
 H        -1.557563         2.267422         3.964131
 H         0.434944         2.234851         1.861801
 H         0.305662         0.591289         2.790085
 H        -3.532230         0.847154         3.000966
 H        -1.690012        -0.813428         2.306290
 H        -2.442390        -0.539689         0.874923
