19
Iteration:  1970charge 0 multiplicity 1
 O         0.122957        -0.037284         0.264551
 C        -0.818158         0.794428         1.133738
 C        -1.694659         1.702304         0.293179
 C        -2.713148         2.158496         1.303300
 O        -1.911958         3.232784         1.933363
 C        -1.505029         2.172371         2.909657
 C        -0.123901         1.553048         2.297298
 C        -2.658118         1.087503         2.461005
 C        -1.904758        -0.110568         1.834982
 H         0.570204         0.623333        -0.288597
 H        -1.148549         2.597733        -0.262249
 H        -2.201736         1.057987        -0.477282
 H        -3.663635         2.475539         0.910723
 H        -1.621801         2.504513         4.011522
 H         0.614904         2.372813         1.843211
 H         0.334092         0.894529         3.051604
 H        -3.668158         0.889320         2.981800
 H        -1.550275        -0.981434         2.393142
 H        -2.453250        -0.574349         0.996037
