19
Iteration:   242charge 0 multiplicity 1
 O         0.155902        -0.059091         0.297614
 C        -0.811718         0.724668         0.989576
 C        -1.486943         1.972779         0.203420
 C        -2.638283         2.346164         1.221031
 O        -2.052879         3.213049         2.258697
 C        -1.503632         2.029827         2.932855
 C        -0.280775         1.340619         2.294224
 C        -2.638871         1.124993         2.269632
 C        -1.978479        -0.048298         1.711063
 H         0.827997        -0.300301         0.938857
 H        -0.806159         2.776123         0.027865
 H        -1.928888         1.545824        -0.796304
 H        -3.616944         2.635054         0.827157
 H        -1.451148         2.057341         4.054244
 H         0.698828         1.871760         2.146917
 H        -0.073161         0.616766         3.134628
 H        -3.561204         1.042675         2.944787
 H        -1.526517        -0.713381         2.478343
 H        -2.579269        -0.599345         0.999430
