19
Iteration:  4001charge 0 multiplicity 1
 O         0.077924         0.011451         0.197780
 C        -0.789993         0.712759         1.082082
 C        -1.592771         1.795593         0.197237
 C        -2.591449         2.289398         1.286653
 O        -1.972702         3.159846         2.241323
 C        -1.476200         2.026058         2.981867
 C        -0.203304         1.480880         2.282980
 C        -2.634917         1.173021         2.321369
 C        -1.958732        -0.017271         1.676374
 H         0.136906        -0.867619         0.644113
 H        -1.155548         2.809845        -0.028997
 H        -2.108415         1.383707        -0.653525
 H        -3.561301         2.822002         1.033693
 H        -1.514618         2.100230         4.046510
 H         0.443058         2.296368         1.872721
 H         0.360000         0.772660         3.022575
 H        -3.525378         0.849888         2.908491
 H        -1.587393        -0.721631         2.376985
 H        -2.627032        -0.426913         0.930093
