19
Iteration:   349
 O         0.038242        -0.117686         0.323856
 C        -0.771261         0.715538         1.053382
 C        -1.415080         1.831523         0.331447
 C        -2.634939         2.283142         1.287196
 O        -2.075797         3.220690         2.265101
 C        -1.545283         1.973144         2.955244
 C        -0.142810         1.524634         2.319863
 C        -2.617342         1.128059         2.275852
 C        -1.985699         0.064964         1.464735
 H         0.862624        -0.237778         0.821734
 H        -0.858032         2.634094        -0.141407
 H        -1.771276         1.266403        -0.467294
 H        -3.636985         2.362935         0.869276
 H        -1.341532         2.156455         4.015514
 H         0.204508         2.468122         1.856888
 H         0.322396         0.880075         3.057164
 H        -3.651399         0.922319         2.741556
 H        -1.979278        -0.848734         2.100281
 H        -2.632493        -0.223019         0.598530
