19
Iteration:  3764charge 0 multiplicity 1
 O         0.224375         0.152278         0.209619
 C        -0.803917         0.721388         1.006048
 C        -1.711256         1.644227         0.215864
 C        -2.643541         2.245947         1.242212
 O        -1.925754         3.181202         2.172886
 C        -1.428797         2.064518         2.965822
 C        -0.237097         1.399272         2.260969
 C        -2.683317         1.220909         2.424040
 C        -1.971645        -0.033934         1.735484
 H         0.356309        -0.722962         0.634738
 H        -1.200521         2.355424        -0.360468
 H        -2.359587         1.089857        -0.507139
 H        -3.523439         2.803228         0.950323
 H        -1.220696         2.413462         3.991769
 H         0.564081         2.218155         2.233064
 H        -0.039919         0.656674         3.105217
 H        -3.567251         1.226619         3.167472
 H        -1.704555        -0.798150         2.558998
 H        -2.747081        -0.437458         1.016368
