19
Iteration:  2785charge 0 multiplicity 1
 O         0.036827        -0.210984         0.341496
 C        -0.722606         0.787601         1.047133
 C        -1.607748         1.875294         0.228943
 C        -2.660406         2.262959         1.295862
 O        -1.982240         3.262559         2.197364
 C        -1.521484         2.041252         2.909243
 C        -0.215727         1.519388         2.243025
 C        -2.641087         1.093118         2.345937
 C        -1.927483        -0.053260         1.710806
 H         0.753895         0.134823        -0.246896
 H        -0.952016         2.749145         0.132730
 H        -1.907100         1.520699        -0.786330
 H        -3.609106         2.723347         0.931660
 H        -1.380979         2.190691         3.948096
 H         0.464741         2.280341         1.945505
 H         0.419962         0.891583         2.800035
 H        -3.516936         0.930407         2.973678
 H        -1.549133        -0.704194         2.515784
 H        -2.473304        -0.583352         0.922261
