19
Iteration:  4963
 O         0.228118         0.100739         0.372922
 C        -0.813365         0.740796         1.042727
 C        -1.760528         1.809470         0.191434
 C        -2.663396         2.380975         1.357499
 O        -1.809505         3.179841         2.153268
 C        -1.451716         1.980146         2.916588
 C        -0.250063         1.439764         2.286078
 C        -2.673296         1.123627         2.312336
 C        -1.991657        -0.151336         1.723965
 H        -0.013387         0.084679        -0.560401
 H        -1.185219         2.646932        -0.258695
 H        -2.341453         1.122232        -0.489813
 H        -3.663106         2.784965         1.008104
 H        -1.441092         2.339666         3.960428
 H         0.489302         2.147172         1.894880
 H         0.383435         0.648385         2.822470
 H        -3.698268         0.807600         2.695630
 H        -1.671890        -0.909862         2.446745
 H        -2.722690        -0.755484         1.226319
