19
Iteration:  2625
 O         0.091303         0.083805         0.296547
 C        -0.776327         0.758228         1.113701
 C        -1.654857         1.695874         0.223155
 C        -2.585335         2.272892         1.269392
 O        -1.898341         3.245832         2.148249
 C        -1.505371         1.992883         2.925698
 C        -0.191386         1.510964         2.377315
 C        -2.631861         1.179979         2.288009
 C        -1.994224        -0.131855         1.654328
 H        -0.212439        -0.831242         0.196229
 H        -1.118738         2.612529        -0.195660
 H        -2.151965         1.192472        -0.572915
 H        -3.453344         2.842094         1.034956
 H        -1.688055         2.169403         4.020025
 H         0.530407         2.328009         2.249654
 H         0.490589         0.722697         2.946020
 H        -3.516638         1.159390         2.866151
 H        -1.765829        -0.930001         2.407816
 H        -2.550209        -0.597771         0.835497
