19
Iteration:   674
 O         0.168152         0.071011         0.397280
 C        -0.885907         0.730833         1.019915
 C        -1.611883         1.706376         0.112126
 C        -2.567176         2.352185         1.203690
 O        -1.820534         3.213341         2.202650
 C        -1.524560         1.927494         3.040576
 C        -0.325867         1.433120         2.336862
 C        -2.740935         1.136554         2.257666
 C        -1.949179        -0.042860         1.701891
 H         0.757687         0.706283        -0.039316
 H        -0.886358         2.429663        -0.360576
 H        -2.205654         1.295676        -0.675568
 H        -3.527155         2.827157         0.926774
 H        -1.612877         2.012566         4.115460
 H         0.358280         2.290859         2.364117
 H         0.285664         0.597868         2.840596
 H        -3.706084         1.102733         2.814543
 H        -1.616207        -0.750420         2.453020
 H        -2.567021        -0.705761         1.017675
