19
Iteration:  4802
 O         0.090377         0.073018         0.309396
 C        -0.831560         0.785173         1.068237
 C        -1.586792         1.797810         0.296554
 C        -2.600408         2.221011         1.228185
 O        -1.960466         3.154932         2.184739
 C        -1.445097         2.034415         2.952860
 C        -0.209292         1.445187         2.281009
 C        -2.626952         1.166857         2.370367
 C        -1.976053        -0.077988         1.717667
 H        -0.174993         0.101418        -0.626791
 H        -1.050471         2.739739        -0.166814
 H        -1.990881         1.199760        -0.546427
 H        -3.486091         2.718374         0.657628
 H        -1.326608         2.368701         4.000810
 H         0.560836         2.121266         1.969428
 H         0.129349         0.648505         2.954218
 H        -3.570312         0.861587         2.787293
 H        -1.592169        -0.987617         2.283844
 H        -2.687241        -0.604186         0.937335
