19
Iteration:  3235
 O         0.162838         0.059657         0.251638
 C        -0.886083         0.727956         1.050578
 C        -1.689495         1.698800         0.198602
 C        -2.636074         2.269345         1.292043
 O        -1.907692         3.192421         2.173533
 C        -1.447736         2.126123         2.924457
 C        -0.329363         1.487386         2.230998
 C        -2.592732         1.147687         2.388855
 C        -1.943740        -0.111234         1.734263
 H         0.935938        -0.087876         0.826241
 H        -1.109853         2.625323        -0.329860
 H        -2.285819         1.206329        -0.593887
 H        -3.546237         2.783274         0.953279
 H        -1.143386         2.396424         3.930545
 H         0.618418         1.936869         1.991988
 H         0.010852         0.742282         3.077384
 H        -3.507947         0.983311         2.923148
 H        -1.571139        -0.766317         2.557344
 H        -2.609372        -0.720451         1.142054
