19
Iteration:  3322charge 0 multiplicity 1
 O         0.120790        -0.179786         0.248828
 C        -0.702382         0.778674         1.029084
 C        -1.638944         1.794904         0.203396
 C        -2.631437         2.277041         1.341349
 O        -2.092233         3.230030         2.284835
 C        -1.466981         2.091411         2.878867
 C        -0.116911         1.511353         2.151605
 C        -2.665416         1.187322         2.345415
 C        -1.973418        -0.024653         1.725792
 H         0.524271        -0.709270         0.994270
 H        -0.998742         2.819992         0.023276
 H        -2.322443         1.358378        -0.579223
 H        -3.543333         2.529194         0.834748
 H        -1.467370         2.189354         3.937033
 H         0.680067         2.248082         2.043811
 H         0.262278         0.791632         2.881839
 H        -3.573715         0.987324         2.829773
 H        -1.639544        -0.626871         2.619461
 H        -2.462437        -0.502066         0.890458
