19
Iteration:  4846
 O         0.296314         0.078521         0.328729
 C        -0.818227         0.747531         1.057200
 C        -1.743755         1.733251         0.217698
 C        -2.627574         2.339463         1.309017
 O        -1.861791         3.227077         2.248848
 C        -1.540178         2.049960         2.924505
 C        -0.231948         1.423860         2.254826
 C        -2.689913         1.052941         2.333699
 C        -1.958462        -0.024227         1.634125
 H        -0.141881        -0.693944        -0.081824
 H        -1.167099         2.498445        -0.485823
 H        -2.532557         1.187567        -0.310705
 H        -3.656766         2.903353         1.104721
 H        -1.413343         2.197771         4.016765
 H         0.501793         2.128954         1.864218
 H         0.312083         0.638640         2.794187
 H        -3.590937         1.091689         2.915106
 H        -1.641140        -0.824700         2.393198
 H        -2.715152        -0.600689         0.906475
