19
Iteration:  3837
 O         0.104071        -0.209569         0.187808
 C        -0.838611         0.679118         1.053399
 C        -1.655257         1.798435         0.200187
 C        -2.577458         2.353400         1.262369
 O        -2.087576         3.253939         2.311667
 C        -1.440704         2.131342         2.974173
 C        -0.255981         1.549869         2.283896
 C        -2.587051         1.156000         2.353131
 C        -1.873722        -0.109369         1.643551
 H         0.924902        -0.232069         0.689074
 H        -0.819544         2.609858        -0.010327
 H        -2.118858         1.470563        -0.753940
 H        -3.561249         2.865218         0.950492
 H        -1.425528         2.249107         4.038262
 H         0.241606         2.416970         1.894537
 H         0.400956         0.888451         2.803858
 H        -3.553921         0.971990         2.932477
 H        -1.422430        -0.799384         2.372822
 H        -2.618690        -0.579446         0.966498
