19
Iteration:  4322charge 0 multiplicity 1
 O         0.180198         0.045322         0.292929
 C        -0.839812         0.737634         0.962082
 C        -1.618237         1.774766         0.160886
 C        -2.612541         2.247414         1.349332
 O        -1.925664         3.196819         2.198290
 C        -1.513578         2.042236         3.005683
 C        -0.233329         1.456809         2.274251
 C        -2.634863         1.155846         2.414460
 C        -1.990636        -0.074179         1.709029
 H         0.058074         0.086766        -0.663845
 H        -1.126324         2.636750        -0.178805
 H        -2.141552         1.261378        -0.679530
 H        -3.613016         2.535731         1.024492
 H        -1.250572         2.264192         4.020784
 H         0.616057         2.214466         2.096917
 H         0.240340         0.687067         2.881142
 H        -3.677615         1.034755         2.824819
 H        -1.706643        -0.749218         2.506366
 H        -2.577420        -0.649009         0.931067
