19
Iteration:  3089
 O         0.039465        -0.034162         0.219578
 C        -0.760761         0.750418         1.030484
 C        -1.641163         1.805729         0.237670
 C        -2.654866         2.245192         1.237273
 O        -2.030275         3.212900         2.200266
 C        -1.458616         2.085313         2.890019
 C        -0.188877         1.402426         2.238243
 C        -2.672074         1.174790         2.356194
 C        -1.846488        -0.017226         1.821695
 H         0.827777        -0.194402         0.751010
 H        -1.040884         2.477747        -0.250738
 H        -2.165236         1.144532        -0.499059
 H        -3.587010         2.539070         0.917087
 H        -1.474032         2.264792         3.952383
 H         0.603323         2.174783         1.946809
 H         0.440248         0.778735         2.854749
 H        -3.514970         1.096054         3.078918
 H        -1.467019        -0.590766         2.675484
 H        -2.529786        -0.625745         1.234108
