19
Iteration:  3100
 O         0.153385         0.015595         0.168643
 C        -0.803326         0.783957         1.031241
 C        -1.654785         1.707338         0.134871
 C        -2.704545         2.278629         1.281112
 O        -1.946389         3.197506         2.136631
 C        -1.552600         2.060471         2.954082
 C        -0.166621         1.416217         2.277220
 C        -2.618535         1.160499         2.468862
 C        -1.949959         0.021555         1.849508
 H         0.794761        -0.450934         0.773157
 H        -1.278952         2.496325        -0.401467
 H        -2.308455         1.182180        -0.639424
 H        -3.478661         2.781799         0.822699
 H        -1.301069         2.338159         3.969002
 H         0.586220         2.254216         2.127037
 H         0.145733         0.526744         2.834077
 H        -3.553509         0.906220         3.025881
 H        -1.518277        -0.642020         2.612101
 H        -2.424008        -0.659137         1.147994
