19
Iteration:  1300charge 0 multiplicity 1
 O         0.187547        -0.036981         0.392265
 C        -0.791948         0.740657         1.063675
 C        -1.572782         1.785191         0.228542
 C        -2.651532         2.282546         1.253567
 O        -1.992127         3.214014         2.175393
 C        -1.554733         2.033239         2.925501
 C        -0.220620         1.517226         2.320521
 C        -2.647976         1.156141         2.243546
 C        -1.952897        -0.064202         1.722082
 H        -0.011186        -0.348647        -0.496745
 H        -0.955560         2.605789        -0.131277
 H        -2.038687         1.165200        -0.636194
 H        -3.498302         2.790470         0.871528
 H        -1.503971         2.400085         3.954060
 H         0.528861         2.291741         2.214081
 H         0.316146         0.721438         2.895986
 H        -3.600854         0.984169         2.817484
 H        -1.601529        -0.788796         2.440746
 H        -2.477133        -0.779093         1.029962
