19
Iteration:  2381
 O         0.106912        -0.068839         0.219115
 C        -0.729249         0.777530         1.054617
 C        -1.677963         1.726986         0.274525
 C        -2.715411         2.183109         1.252558
 O        -1.954440         3.241165         2.135434
 C        -1.447954         2.106834         2.915723
 C        -0.240989         1.503351         2.282665
 C        -2.658693         1.162470         2.327918
 C        -1.892232        -0.000143         1.805490
 H         0.908453        -0.358361         0.732843
 H        -1.418170         2.553187        -0.298402
 H        -2.349737         1.039227        -0.314680
 H        -3.671418         2.545666         0.711140
 H        -1.192015         2.322110         3.904225
 H         0.460215         2.286408         2.107034
 H         0.162738         0.787222         3.079513
 H        -3.620561         0.970207         2.966553
 H        -1.335137        -0.553442         2.524556
 H        -2.462256        -0.586429         1.069914
