19
Iteration:  3337
 O         0.079905        -0.147215         0.285713
 C        -0.798008         0.744171         0.988296
 C        -1.609285         1.805373         0.241376
 C        -2.657288         2.267376         1.283619
 O        -2.001125         3.264830         2.196588
 C        -1.496458         2.030041         3.003487
 C        -0.163110         1.571538         2.257460
 C        -2.598898         1.126169         2.367267
 C        -1.943600        -0.046527         1.648740
 H         0.699715        -0.563242         0.925470
 H        -1.142074         2.639158        -0.336376
 H        -2.087234         1.289723        -0.596572
 H        -3.635420         2.758088         0.955756
 H        -1.324176         2.283004         4.086675
 H         0.285479         2.448340         1.825417
 H         0.433751         0.869131         2.846011
 H        -3.474810         1.085252         3.060745
 H        -1.578204        -0.855574         2.246176
 H        -2.667271        -0.532497         0.910219
