19
Iteration:  1771
 O         0.125345         0.031466         0.383737
 C        -0.814744         0.667565         1.080527
 C        -1.507989         1.751675         0.249048
 C        -2.584797         2.244268         1.174480
 O        -2.134357         3.201011         2.170310
 C        -1.477324         2.117099         2.906686
 C        -0.208105         1.579110         2.105485
 C        -2.578737         1.127913         2.423133
 C        -1.949767        -0.127150         1.843661
 H        -0.356214        -0.617765        -0.182454
 H        -0.856575         2.524761         0.005461
 H        -2.095033         1.513307        -0.707712
 H        -3.484809         2.639234         0.752237
 H        -1.293668         2.273997         3.954345
 H         0.516678         2.293491         1.659109
 H         0.440458         1.003128         2.867537
 H        -3.601595         1.048430         2.853665
 H        -1.525488        -0.758372         2.547892
 H        -2.570475        -0.681697         1.120685
