19
Iteration:   719
 O         0.145780        -0.042786         0.217384
 C        -0.764938         0.774939         1.104012
 C        -1.493589         1.735255         0.262290
 C        -2.615693         2.270480         1.270511
 O        -2.080639         3.259103         2.169380
 C        -1.537502         2.080858         2.986183
 C        -0.228424         1.428508         2.370032
 C        -2.610892         1.189696         2.360407
 C        -1.997011        -0.071825         1.538914
 H         0.388832        -0.821426         0.763091
 H        -1.010889         2.710987        -0.040388
 H        -1.800047         1.309219        -0.647654
 H        -3.533855         2.633813         0.865614
 H        -1.326972         2.318293         4.018127
 H         0.477368         2.266078         2.166787
 H         0.219233         0.859587         3.240545
 H        -3.507305         1.039806         2.965730
 H        -1.806349        -0.902283         2.199484
 H        -2.595385        -0.484248         0.692005
