19
Iteration:  2254
 O         0.219257         0.042937         0.266263
 C        -0.890717         0.657615         1.026272
 C        -1.725102         1.663892         0.233560
 C        -2.640390         2.196122         1.318682
 O        -2.043839         3.267505         2.106110
 C        -1.453626         2.159860         2.915010
 C        -0.195694         1.617381         2.195891
 C        -2.525933         1.143278         2.394763
 C        -1.930484        -0.108906         1.812490
 H         0.461441        -0.798368         0.726460
 H        -1.068000         2.365911        -0.313614
 H        -2.364600         1.168150        -0.466866
 H        -3.525686         2.560368         0.857948
 H        -1.416609         2.347779         4.050067
 H         0.483073         2.417846         1.706268
 H         0.271678         0.850441         2.867575
 H        -3.334128         0.954369         3.057379
 H        -1.751950        -0.796210         2.691255
 H        -2.643864        -0.697111         1.223831
