19
Iteration:  3894
 O         0.091379         0.013823         0.252223
 C        -0.822875         0.763582         1.036698
 C        -1.702027         1.775625         0.200781
 C        -2.587020         2.275994         1.340754
 O        -1.846602         3.248807         2.145442
 C        -1.522507         2.070256         2.885267
 C        -0.283531         1.422806         2.359896
 C        -2.633228         1.091172         2.390930
 C        -1.899628        -0.087420         1.680434
 H         0.928975         0.436956        -0.046653
 H        -1.102968         2.561216        -0.283501
 H        -2.417585         1.207345        -0.494761
 H        -3.621383         2.658954         1.222371
 H        -1.454590         2.332356         3.925776
 H         0.536039         2.168997         2.443869
 H        -0.001058         0.630454         2.990287
 H        -3.641246         0.961426         2.891690
 H        -1.554827        -0.955687         2.371717
 H        -2.601966        -0.664625         1.000789
