19
Iteration:  2306
 O         0.105181        -0.167567         0.356317
 C        -0.818299         0.775478         1.017075
 C        -1.720733         1.794326         0.150041
 C        -2.643048         2.206802         1.279490
 O        -2.074919         3.235383         2.153018
 C        -1.478038         2.163162         2.903906
 C        -0.196058         1.566378         2.289671
 C        -2.524669         1.145730         2.352829
 C        -1.798502        -0.133281         1.831722
 H         0.346802         0.163486        -0.527457
 H        -1.219640         2.675054        -0.227950
 H        -2.204824         1.178373        -0.717162
 H        -3.638287         2.579055         0.941722
 H        -1.275163         2.476426         3.939987
 H         0.437509         2.306241         2.012023
 H         0.131958         0.946378         3.118645
 H        -3.557859         1.182430         2.830844
 H        -1.335788        -0.817781         2.581959
 H        -2.445076        -0.721536         1.130842
