19
Iteration:  1717charge 0 multiplicity 1
 O         0.202582         0.082025         0.374566
 C        -0.837870         0.789084         1.007324
 C        -1.718659         1.705395         0.178549
 C        -2.770034         2.254251         1.282993
 O        -1.969761         3.240979         2.056445
 C        -1.402801         2.088225         2.905524
 C        -0.233333         1.402264         2.342768
 C        -2.564651         1.162943         2.352621
 C        -1.901462        -0.055996         1.716677
 H         0.434559        -0.591269         1.055498
 H        -1.301568         2.366319        -0.464120
 H        -2.376804         1.009139        -0.353580
 H        -3.766828         2.569617         1.092035
 H        -1.372725         2.339491         3.946535
 H         0.541127         2.133256         2.003043
 H         0.252568         0.628579         3.069638
 H        -3.481219         0.981965         2.923776
 H        -1.414973        -0.721934         2.418776
 H        -2.517156        -0.743059         1.091248
