19
Iteration:  3245
 O         0.104912         0.124751         0.283043
 C        -0.835249         0.750639         1.020846
 C        -1.760879         1.718803         0.193863
 C        -2.647652         2.268671         1.267112
 O        -1.908006         3.242329         2.125580
 C        -1.400328         2.099356         2.935213
 C        -0.187286         1.362774         2.284990
 C        -2.620616         1.150220         2.353016
 C        -1.918354        -0.095396         1.786227
 H         0.754619        -0.152798         0.926879
 H        -1.159515         2.455860        -0.485711
 H        -2.424139         1.112298        -0.510185
 H        -3.630263         2.544069         0.966350
 H        -1.525800         2.272279         3.970128
 H         0.603273         2.087366         2.206649
 H        -0.106211         0.565152         3.014365
 H        -3.590396         0.923690         2.791921
 H        -1.503538        -0.835922         2.525354
 H        -2.547434        -0.613987         1.079285
