19
Iteration:   942charge 0 multiplicity 1
 O         0.215180         0.065218         0.255781
 C        -0.704400         0.697322         1.088102
 C        -1.626926         1.627902         0.303054
 C        -2.584067         2.285023         1.238202
 O        -1.918260         3.214097         2.172413
 C        -1.524306         2.069600         2.907915
 C        -0.261714         1.512250         2.387202
 C        -2.754466         1.177695         2.289636
 C        -2.053694        -0.099584         1.717395
 H         0.226091         0.645083        -0.545225
 H        -1.107542         2.387603        -0.337457
 H        -2.231636         0.871647        -0.329882
 H        -3.299151         2.854540         0.589832
 H        -1.462227         2.050538         4.016239
 H         0.359965         2.409385         2.053005
 H         0.371251         0.918374         3.109919
 H        -3.601643         0.902994         2.972568
 H        -1.589338        -0.802266         2.467341
 H        -2.723908        -0.667182         1.102750
