19
Iteration:  3620charge 0 multiplicity 1
 O         0.146998         0.085361         0.200404
 C        -0.828207         0.675586         1.062320
 C        -1.731159         1.702735         0.325187
 C        -2.617231         2.320020         1.290592
 O        -1.956241         3.283404         2.153745
 C        -1.502655         2.080772         2.926252
 C        -0.197326         1.420905         2.273229
 C        -2.627137         1.217931         2.361289
 C        -1.920647        -0.149022         1.704048
 H         0.689817        -0.564294         0.705069
 H        -1.103753         2.393712        -0.234127
 H        -2.136602         1.249279        -0.523246
 H        -3.570047         2.637367         0.843924
 H        -1.335367         2.143250         3.947760
 H         0.531184         2.109706         1.877123
 H         0.200311         0.647021         3.038285
 H        -3.443587         1.043263         3.031299
 H        -1.669533        -0.856208         2.543896
 H        -2.550788        -0.636992         0.908475
