19
Iteration:  3365
 O         0.095858         0.118698         0.223032
 C        -0.854232         0.727396         1.069279
 C        -1.601810         1.702904         0.233129
 C        -2.609997         2.229832         1.231304
 O        -1.909352         3.233028         2.142796
 C        -1.472778         2.000648         2.977376
 C        -0.185343         1.480117         2.256843
 C        -2.686728         1.155613         2.362221
 C        -2.012130        -0.108716         1.782365
 H         0.826127        -0.257952         0.789601
 H        -1.057349         2.628332        -0.193433
 H        -2.138906         1.157980        -0.593744
 H        -3.473819         2.753424         0.913238
 H        -1.336568         2.326000         3.998274
 H         0.495766         2.272165         1.885390
 H         0.215905         0.603393         2.819980
 H        -3.547355         1.261942         2.966814
 H        -1.644529        -0.741404         2.658053
 H        -2.676173        -0.600525         1.071171
