19
Iteration:  3778charge 0 multiplicity 1
 O         0.220935         0.160569         0.168342
 C        -0.833891         0.722024         1.060091
 C        -1.696068         1.700426         0.244229
 C        -2.600496         2.241215         1.332314
 O        -1.815183         3.255507         2.092866
 C        -1.528241         2.103000         2.912716
 C        -0.320973         1.448639         2.323572
 C        -2.604347         1.129827         2.438519
 C        -2.083805        -0.130146         1.780338
 H         0.593611        -0.683321         0.487353
 H        -1.183071         2.551097        -0.221020
 H        -2.196629         1.132530        -0.566946
 H        -3.538932         2.546842         0.870256
 H        -1.504851         2.275054         4.046315
 H         0.516330         2.120292         1.984868
 H         0.293479         0.635696         2.865386
 H        -3.539579         0.982766         2.924416
 H        -1.623659        -0.871269         2.363013
 H        -2.716686        -0.631805         1.086273
