19
Iteration:  2582charge 0 multiplicity 1
 O         0.166794         0.115370         0.363047
 C        -0.881123         0.726067         0.992592
 C        -1.618880         1.803851         0.217085
 C        -2.626986         2.260983         1.226019
 O        -1.936079         3.294983         2.165774
 C        -1.435509         1.994296         2.914534
 C        -0.270497         1.416203         2.286206
 C        -2.577648         1.155225         2.302614
 C        -2.025960        -0.130751         1.770118
 H        -0.064665        -0.815197         0.174078
 H        -0.847252         2.604796        -0.124845
 H        -2.092606         1.507178        -0.728088
 H        -3.564487         2.430370         0.756089
 H        -1.415276         2.163380         4.062752
 H         0.612831         2.084042         2.116687
 H         0.165959         0.592737         3.094802
 H        -3.383199         1.079153         3.031986
 H        -1.646019        -0.811081         2.578808
 H        -2.642041        -0.816391         1.188940
