19
Iteration:  1206
 O         0.273327         0.127607         0.412241
 C        -0.819525         0.695982         1.042644
 C        -1.659806         1.707164         0.154967
 C        -2.638183         2.323846         1.219743
 O        -1.946918         3.231310         2.143444
 C        -1.486956         2.018899         2.899657
 C        -0.284134         1.336839         2.314675
 C        -2.663437         1.168045         2.315607
 C        -1.972083        -0.072669         1.801523
 H         0.138060         0.158478        -0.550883
 H        -0.990318         2.528620        -0.322383
 H        -2.272637         1.347360        -0.740510
 H        -3.555938         2.760920         0.747856
 H        -1.303333         2.263732         3.992847
 H         0.427757         2.147972         2.123532
 H         0.152394         0.640381         3.019392
 H        -3.607919         0.933830         2.928364
 H        -1.616688        -0.649561         2.713641
 H        -2.724207        -0.727081         1.340479
