19
Iteration:  1134
 O         0.171801        -0.124094         0.424958
 C        -0.783853         0.738290         1.030460
 C        -1.586020         1.874048         0.191226
 C        -2.644134         2.349260         1.254558
 O        -2.066476         3.248033         2.263863
 C        -1.545496         1.972718         2.886323
 C        -0.202944         1.507161         2.206181
 C        -2.668990         1.112681         2.203906
 C        -1.857131        -0.022187         1.758173
 H        -0.079344        -0.978107         0.038753
 H        -1.030787         2.777115        -0.099341
 H        -1.950997         1.249973        -0.612147
 H        -3.597917         2.874205         0.995363
 H        -1.301043         2.075919         3.916816
 H         0.411272         2.439372         2.039833
 H         0.247736         0.792167         3.068552
 H        -3.573564         0.896972         2.627468
 H        -1.380163        -0.416614         2.670176
 H        -2.395600        -0.793121         1.091159
