19
Iteration:  4194charge 0 multiplicity 1
 O         0.152975        -0.008655         0.297495
 C        -0.848882         0.632769         0.992183
 C        -1.700090         1.792434         0.227024
 C        -2.590738         2.377626         1.309831
 O        -1.893604         3.220136         2.243513
 C        -1.589183         2.023147         3.038055
 C        -0.275699         1.441918         2.227225
 C        -2.599473         1.181609         2.335528
 C        -1.921067        -0.098611         1.620946
 H         1.029936         0.396494         0.141769
 H        -1.058580         2.558508        -0.356611
 H        -2.381124         1.343101        -0.504493
 H        -3.501737         2.878245         1.090282
 H        -1.369722         2.093297         4.159253
 H         0.378873         2.244156         1.876912
 H         0.214774         0.708313         2.834722
 H        -3.544888         1.061090         2.912897
 H        -1.479828        -0.884898         2.315766
 H        -2.564405        -0.712273         0.991295
