19
Iteration:  1769charge 0 multiplicity 1
 O         0.108837         0.042494         0.371369
 C        -0.808170         0.662849         1.100102
 C        -1.507469         1.755006         0.248413
 C        -2.556623         2.232942         1.182803
 O        -2.125702         3.189820         2.163963
 C        -1.494508         2.121824         2.916331
 C        -0.218071         1.571586         2.109490
 C        -2.574379         1.124052         2.422999
 C        -1.950681        -0.106636         1.825229
 H        -0.321438        -0.656373        -0.163777
 H        -0.834419         2.557389         0.003194
 H        -2.123144         1.434103        -0.706296
 H        -3.478926         2.640303         0.724656
 H        -1.366131         2.335685         3.958608
 H         0.418243         2.263904         1.657742
 H         0.457743         1.042447         2.812121
 H        -3.530008         1.073340         2.882164
 H        -1.521068        -0.740297         2.555171
 H        -2.540706        -0.723030         1.177970
