19
Iteration:  4767charge 0 multiplicity 1
 O         0.099280        -0.189630         0.245913
 C        -0.802816         0.754770         1.022975
 C        -1.571447         1.850046         0.235960
 C        -2.630902         2.278471         1.239312
 O        -2.038775         3.224542         2.341352
 C        -1.534164         2.034155         2.967045
 C        -0.217005         1.518375         2.270691
 C        -2.616638         1.170673         2.307409
 C        -1.848544        -0.071989         1.712030
 H         0.345585         0.157964        -0.632093
 H        -1.106101         2.796189        -0.107085
 H        -2.207275         1.412138        -0.544452
 H        -3.573588         2.775000         0.755949
 H        -1.323514         2.358686         3.978126
 H         0.475641         2.295951         2.013068
 H         0.387151         0.797135         2.792589
 H        -3.580888         0.941184         2.873784
 H        -1.588581        -0.702137         2.592767
 H        -2.566356        -0.531214         0.949698
