19
Iteration:  3024
 O         0.128726        -0.033056         0.419670
 C        -0.874344         0.746690         1.027992
 C        -1.721452         1.782071         0.156424
 C        -2.713736         2.345165         1.276401
 O        -1.949210         3.234487         2.216852
 C        -1.463604         2.076464         2.854903
 C        -0.164721         1.446188         2.275640
 C        -2.580576         1.124566         2.305390
 C        -1.902945        -0.117829         1.771639
 H         0.397603         0.177147        -0.496206
 H        -1.249126         2.524686        -0.394085
 H        -2.297814         1.215845        -0.582993
 H        -3.554914         2.792788         0.914344
 H        -1.344380         2.305065         3.886010
 H         0.757124         2.101294         2.127807
 H         0.249423         0.756917         3.086941
 H        -3.411949         0.907480         2.998038
 H        -1.368249        -0.860737         2.375823
 H        -2.423195        -0.699619         1.011877
