19
Iteration:  1797
 O         0.268741        -0.177218         0.438277
 C        -0.714274         0.689817         1.018754
 C        -1.702156         1.784460         0.209745
 C        -2.743935         2.250305         1.310235
 O        -2.088211         3.241647         2.141639
 C        -1.500289         2.139521         2.879080
 C        -0.204842         1.483701         2.226362
 C        -2.563686         1.182099         2.391060
 C        -1.922291         0.007891         1.684610
 H         0.104176        -0.177180        -0.532866
 H        -1.330833         2.733658        -0.330994
 H        -2.293127         1.338262        -0.530227
 H        -3.748069         2.632503         1.035726
 H        -1.450948         2.294197         4.003546
 H         0.541571         2.283082         1.852632
 H         0.370702         0.899944         2.967940
 H        -3.386895         0.983231         3.129409
 H        -1.438027        -0.489044         2.623941
 H        -2.463136        -0.705554         0.993810
