19
Iteration:  1018
 O         0.090044        -0.165048         0.338570
 C        -0.732971         0.722764         1.097772
 C        -1.550337         1.760230         0.245937
 C        -2.586562         2.278528         1.288005
 O        -2.106139         3.208250         2.252555
 C        -1.532752         2.101920         2.909367
 C        -0.161745         1.600984         2.246693
 C        -2.581766         1.160536         2.314976
 C        -2.027005        -0.082697         1.614631
 H         0.928402         0.297270         0.223660
 H        -0.972641         2.592338        -0.216771
 H        -2.034464         1.246684        -0.636885
 H        -3.521733         2.471049         0.791410
 H        -1.481136         2.245867         4.006170
 H         0.306564         2.460703         1.815951
 H         0.454944         1.072230         2.856826
 H        -3.421949         0.917467         2.999494
 H        -1.897756        -0.747304         2.459129
 H        -2.458742        -0.479538         0.765393
