19
Iteration:  4930
 O         0.126089         0.011049         0.331285
 C        -0.749254         0.776271         0.997344
 C        -1.582838         1.745628         0.147646
 C        -2.668116         2.262030         1.292025
 O        -1.979942         3.182697         2.229771
 C        -1.469742         1.994757         2.994359
 C        -0.208526         1.481485         2.268271
 C        -2.629455         1.135688         2.400707
 C        -1.989193        -0.023752         1.701036
 H        -0.002043         0.057301        -0.630912
 H        -1.147748         2.549122        -0.434199
 H        -2.151272         1.164100        -0.606539
 H        -3.527134         2.864967         1.048292
 H        -1.238209         2.364365         4.013582
 H         0.595855         2.158497         1.977255
 H         0.278145         0.615311         2.841546
 H        -3.633002         1.014617         2.924712
 H        -1.637360        -0.777988         2.380855
 H        -2.733676        -0.295525         1.026056
