19
Iteration:  2967
 O         0.156372         0.099332         0.297663
 C        -0.833138         0.718024         1.052847
 C        -1.612143         1.753657         0.255532
 C        -2.643479         2.272525         1.301492
 O        -1.998954         3.225947         2.122585
 C        -1.422706         2.053293         2.918453
 C        -0.174433         1.447013         2.272214
 C        -2.614385         1.162619         2.349330
 C        -2.006504        -0.107453         1.751553
 H        -0.126540        -0.820748         0.131375
 H        -1.079438         2.515409        -0.185238
 H        -2.282990         1.173297        -0.437726
 H        -3.535098         2.631872         0.832274
 H        -1.405426         2.347948         4.001268
 H         0.551127         2.286851         1.954066
 H         0.267997         0.661671         2.943066
 H        -3.461740         1.024477         3.025528
 H        -1.676143        -0.824761         2.486470
 H        -2.511912        -0.506084         0.832652
