19
Iteration:  4404
 O         0.136982         0.009636         0.306581
 C        -0.872902         0.765852         1.008453
 C        -1.725708         1.760736         0.216939
 C        -2.630002         2.292032         1.268388
 O        -1.938796         3.231654         2.266979
 C        -1.414350         1.989909         2.980618
 C        -0.216251         1.492972         2.238947
 C        -2.668678         1.156358         2.304596
 C        -1.939290        -0.099713         1.673245
 H         0.991526         0.186816         0.762577
 H        -1.301389         2.633020        -0.356247
 H        -2.164191         1.093778        -0.516684
 H        -3.445082         2.893408         0.834656
 H        -1.311087         2.085073         4.085545
 H         0.464232         2.201075         1.716983
 H         0.295481         0.557032         2.759799
 H        -3.547580         0.916674         2.883707
 H        -1.521146        -0.717483         2.481057
 H        -2.456815        -0.722968         1.003949
