19
Iteration:   794charge 0 multiplicity 1
 O         0.205367         0.032546         0.419081
 C        -0.879394         0.732190         1.038964
 C        -1.578209         1.697892         0.153301
 C        -2.639748         2.219681         1.246398
 O        -1.923758         3.227044         2.202648
 C        -1.514292         2.082004         2.969516
 C        -0.268278         1.426060         2.363894
 C        -2.598532         1.213513         2.383699
 C        -2.030127        -0.082339         1.566554
 H         0.626907         0.672106        -0.196044
 H        -1.073711         2.522794        -0.469153
 H        -2.165747         0.952278        -0.558219
 H        -3.531622         2.646686         0.806663
 H        -1.489209         2.346566         4.016308
 H         0.529841         2.090167         2.029069
 H         0.197757         0.673882         3.026381
 H        -3.455333         1.094878         3.049813
 H        -1.732701        -0.982722         2.140046
 H        -2.733110        -0.356750         0.674807
