19
Iteration:  4358
 O         0.000372        -0.149253         0.211448
 C        -0.739418         0.721511         1.059039
 C        -1.533953         1.849430         0.322041
 C        -2.648226         2.250204         1.359935
 O        -2.091705         3.284799         2.222537
 C        -1.522020         2.139265         2.938311
 C        -0.098456         1.477203         2.244184
 C        -2.630801         1.086335         2.296338
 C        -1.930724        -0.116258         1.690966
 H         0.566104         0.449599        -0.305138
 H        -0.799058         2.687085         0.104961
 H        -2.034701         1.636668        -0.578622
 H        -3.624358         2.510425         1.064260
 H        -1.373404         2.403864         4.021212
 H         0.560322         2.343812         1.849278
 H         0.415175         0.735121         2.983622
 H        -3.538528         0.910018         2.837300
 H        -1.613182        -0.852147         2.435299
 H        -2.291262        -0.609854         0.841583
