19
Iteration:  3728
 O         0.038169        -0.095966         0.222304
 C        -0.800618         0.741587         1.023600
 C        -1.596272         1.813658         0.263235
 C        -2.620408         2.251361         1.318472
 O        -1.957172         3.198134         2.204912
 C        -1.497043         2.068100         2.911829
 C        -0.271204         1.624537         2.229978
 C        -2.668723         1.161707         2.386334
 C        -1.856823        -0.094013         1.707733
 H         0.528429        -0.698227         0.839541
 H        -0.886556         2.704028         0.043117
 H        -2.025752         1.342496        -0.602847
 H        -3.496613         2.660512         0.751246
 H        -1.275278         2.127414         3.939315
 H         0.402758         2.408227         1.977617
 H         0.337797         0.936206         2.814678
 H        -3.569867         0.939298         2.930869
 H        -1.510763        -0.861312         2.500023
 H        -2.500002        -0.711844         0.997412
