19
Iteration:  4407charge 0 multiplicity 1
 O         0.157991         0.021585         0.302914
 C        -0.855714         0.756351         0.997332
 C        -1.724998         1.744912         0.255127
 C        -2.656668         2.309289         1.254303
 O        -1.925398         3.234723         2.259291
 C        -1.421815         1.987799         2.967017
 C        -0.231040         1.475035         2.239726
 C        -2.643614         1.163933         2.316000
 C        -1.959497        -0.098234         1.669265
 H         0.960954         0.217900         0.811983
 H        -1.330721         2.571867        -0.273134
 H        -2.246332         1.094779        -0.536843
 H        -3.497649         2.963852         0.852719
 H        -1.229977         2.085192         4.001477
 H         0.411020         2.105640         1.779303
 H         0.212224         0.697007         2.803231
 H        -3.544104         0.895634         2.929209
 H        -1.486163        -0.724503         2.432265
 H        -2.479645        -0.792184         0.944990
