19
Iteration:  1204
 C         0.076354         0.571760        -0.346749
 C         1.370443        -0.001729         0.036448
 C         1.759592        -1.363872         0.691353
 C         2.568026        -0.513431         1.796951
 C         2.607179         0.576856         0.836820
 O         2.989359         1.869942         1.145469
 C         2.719693        -0.027423        -0.629736
 O         3.353052         0.903276        -1.429117
 C         2.969096        -1.532554        -0.435081
 H         0.054689         1.625283        -0.007796
 H        -0.185139         0.676020        -1.444173
 H        -0.788335         0.180041         0.236684
 H         1.013062        -2.078158         0.857684
 H         1.955618        -0.196609         2.771928
 H         3.571371        -0.924301         2.184283
 H         3.798401         2.096770         0.610752
 H         2.972433         0.916279        -2.413446
 H         2.631992        -1.993879        -1.360777
 H         3.977554        -1.871154        -0.190825
