19
Iteration:  2374charge 0 multiplicity 1
 C         0.129912         0.614107        -0.372619
 C         1.372076         0.072196         0.188503
 C         1.798234        -1.202071         1.045513
 C         2.741308        -0.377161         1.968694
 C         2.640689         0.695705         0.812836
 O         3.132502         1.988001         0.680655
 C         2.742401        -0.144460        -0.542991
 O         3.259566         0.603641        -1.657618
 C         2.620216        -1.616022        -0.241585
 H        -0.144441         1.424391         0.260440
 H         0.251225         1.099225        -1.305283
 H        -0.697525        -0.117017        -0.194232
 H         1.359923        -2.116464         1.664524
 H         2.211293        -0.061826         2.848838
 H         3.821835        -0.793664         2.060888
 H         3.350684         2.077662        -0.245873
 H         2.872206         0.114909        -2.541604
 H         1.949731        -2.127973        -0.984164
 H         3.542938        -2.151053        -0.137908
