19
Iteration:  2043charge 0 multiplicity 1
 C         0.094199         0.748647        -0.214725
 C         1.312245        -0.011686         0.132842
 C         1.805654        -1.254722         0.810210
 C         2.590669        -0.383438         1.887159
 C         2.660763         0.602742         0.716032
 O         3.058588         1.965615         0.914178
 C         2.754035        -0.057928        -0.569496
 O         3.256557         0.608142        -1.681294
 C         2.865306        -1.634791        -0.226354
 H        -0.676224         0.606339         0.521600
 H         0.324608         1.775240        -0.392406
 H        -0.437684         0.451162        -1.186099
 H         1.205166        -2.057360         1.143196
 H         2.221302         0.147420         2.714601
 H         3.610145        -0.801797         2.023018
 H         3.781850         2.130362         0.183899
 H         2.770782         0.117942        -2.427074
 H         2.658947        -2.503491        -0.892544
 H         3.826766        -1.834914         0.251589
