19
Iteration:  3383
 C         0.172728         0.764118        -0.457332
 C         1.367819         0.075872         0.229226
 C         1.782877        -1.348055         0.931628
 C         2.733671        -0.501463         1.943791
 C         2.599677         0.610618         0.886914
 O         3.034705         2.024638         0.870021
 C         2.839272        -0.102027        -0.525888
 O         3.228600         0.704452        -1.698031
 C         2.717025        -1.664943        -0.305116
 H         0.456642         1.833452        -0.456090
 H         0.061728         0.410118        -1.487626
 H        -0.785523         0.557825         0.107233
 H         1.216895        -2.190110         1.211392
 H         2.130322        -0.223634         2.884736
 H         3.671078        -0.832175         2.285898
 H         3.295622         1.977909        -0.066023
 H         2.571457         0.578453        -2.373157
 H         2.193739        -2.283760        -0.999775
 H         3.745114        -2.181052        -0.196819
