19
Iteration:   422
 C         0.082665         0.638015        -0.341574
 C         1.376131        -0.116497        -0.122492
 C         1.917878        -1.417042         0.521692
 C         2.485640        -0.699787         1.722069
 C         2.546109         0.478224         0.827104
 O         2.711318         1.728374         1.362038
 C         2.933045         0.117546        -0.567193
 O         3.456581         1.169258        -1.214205
 C         3.007539        -1.438870        -0.632128
 H         0.254464         1.428326        -1.052989
 H        -0.715077        -0.001231        -0.752210
 H        -0.367468         1.097895         0.656749
 H         1.334869        -2.393406         0.757475
 H         1.551117        -0.508672         2.403429
 H         3.284269        -1.186966         2.408453
 H         3.138336         2.390989         0.698973
 H         3.282197         1.199348        -2.196851
 H         2.557670        -1.887857        -1.649147
 H         4.131268        -1.919209        -0.413814
