19
Iteration:   508
 C         0.090428         0.634104        -0.527935
 C         1.496314         0.062846         0.018901
 C         1.989902        -1.404261         0.556610
 C         2.516475        -0.696429         1.823653
 C         2.483433         0.516023         0.959388
 O         2.742407         1.795896         1.396964
 C         2.835751         0.020939        -0.593853
 O         3.393781         1.054912        -1.361296
 C         2.982798        -1.432627        -0.684242
 H        -0.363194         1.216504         0.203287
 H         0.194940         1.002747        -1.504533
 H        -0.720971        -0.259283        -0.677839
 H         1.188627        -2.292080         0.796425
 H         1.842930        -0.587804         2.732860
 H         3.462220        -1.065799         2.130871
 H         3.638303         1.979020         1.690123
 H         2.975228         1.142737        -2.218787
 H         2.259559        -1.919016        -1.383381
 H         3.928118        -1.910980        -0.856894
