19
Iteration:  2894charge 0 multiplicity 1
 C        -0.006252         0.626062        -0.206934
 C         1.385556         0.096687         0.059550
 C         1.744478        -1.171777         0.948839
 C         2.623128        -0.247941         1.889820
 C         2.705118         0.628111         0.645963
 O         3.301790         1.914480         0.858494
 C         2.762341        -0.163755        -0.565154
 O         3.192118         0.511786        -1.691261
 C         2.756121        -1.561313        -0.175408
 H        -0.450986         0.851830         0.820564
 H         0.051675         1.444511        -0.977710
 H        -0.629495        -0.227633        -0.613195
 H         1.122208        -1.837103         1.431554
 H         2.153782         0.199696         2.721596
 H         3.584204        -0.659088         2.193302
 H         3.431317         2.257712        -0.049496
 H         2.612490         0.333880        -2.539370
 H         2.298935        -2.241059        -0.907881
 H         3.613116        -2.101104         0.175541
