19
Iteration:  3582
 C         0.192727         0.716087        -0.412202
 C         1.389368         0.062020         0.133110
 C         1.808794        -1.298219         0.940714
 C         2.609137        -0.395969         1.900437
 C         2.656181         0.624316         0.769843
 O         3.080947         1.937190         0.978689
 C         2.765871        -0.098247        -0.564267
 O         3.156200         0.649594        -1.758524
 C         2.800730        -1.616911        -0.239884
 H         0.236169         1.696003        -0.031981
 H         0.118747         0.648294        -1.454486
 H        -0.712203         0.284334         0.068798
 H         1.139602        -2.170298         1.410228
 H         1.828955         0.080822         2.644905
 H         3.591615        -0.624373         2.471083
 H         4.042018         2.060794         0.847002
 H         2.732498         0.122073        -2.494042
 H         2.172551        -1.845647        -1.107524
 H         3.706311        -2.240223        -0.117961
