19
Iteration:  3792
 C         0.124048         0.722402        -0.426179
 C         1.313587         0.112217         0.139012
 C         1.809885        -1.267926         1.014462
 C         2.698295        -0.405286         1.853668
 C         2.696946         0.693314         0.756091
 O         3.134201         1.944056         0.914748
 C         2.737637        -0.113890        -0.522166
 O         3.217367         0.537411        -1.667412
 C         2.745015        -1.656290        -0.239661
 H        -0.554960         0.113372        -1.025204
 H        -0.400403         1.290003         0.299564
 H         0.459331         1.566518        -1.093008
 H         1.314467        -2.108222         1.503049
 H         2.246536         0.042708         2.765839
 H         3.710403        -0.900678         2.086607
 H         3.304938         2.407869         0.009537
 H         2.467433         0.453174        -2.398408
 H         1.980884        -2.082846        -0.868157
 H         3.671939        -2.188278        -0.040818
