19
Iteration:  3918charge 0 multiplicity 1
 C         0.076114         0.735577        -0.157098
 C         1.418811         0.175892         0.162375
 C         1.775351        -1.205827         0.866254
 C         2.703430        -0.355718         1.871940
 C         2.597066         0.687646         0.751404
 O         3.023712         2.017001         0.796844
 C         2.754792        -0.157607        -0.538167
 O         3.427560         0.376308        -1.755678
 C         2.694569        -1.620679        -0.179464
 H         0.037049         1.616219        -0.771914
 H        -0.628849        -0.038546        -0.507611
 H        -0.331414         1.068991         0.747275
 H         0.974885        -1.881834         1.267144
 H         2.095966        -0.093668         2.776335
 H         3.651300        -0.969763         2.074846
 H         3.555224         1.920748        -0.080826
 H         2.685262         0.547766        -2.446474
 H         2.248890        -2.122588        -1.047718
 H         3.584153        -2.136590         0.093304
