19
Iteration:  3773charge 0 multiplicity 1
 C         0.164215         0.732974        -0.370277
 C         1.454989         0.106226         0.224218
 C         1.762343        -1.216390         0.852401
 C         2.733604        -0.387775         1.932195
 C         2.712048         0.698968         0.803422
 O         3.062830         1.997046         0.943438
 C         2.727673        -0.218638        -0.564752
 O         3.242364         0.482314        -1.711264
 C         2.676681        -1.633311        -0.279005
 H        -0.429221        -0.203726        -0.428770
 H        -0.361156         1.388655         0.344063
 H         0.233049         1.125050        -1.339493
 H         0.959171        -1.720092         1.286158
 H         2.072783         0.002494         2.698978
 H         3.733790        -0.861982         2.170584
 H         3.074726         2.393110        -0.008275
 H         2.601311         0.744583        -2.515800
 H         2.206265        -2.232206        -1.138049
 H         3.581176        -1.979211         0.136486
