19
Iteration:  2667
 C         0.123451         0.706772        -0.291785
 C         1.368045         0.165048         0.233876
 C         1.774756        -1.232493         1.048550
 C         2.782892        -0.325222         1.887564
 C         2.704406         0.644974         0.728780
 O         3.111472         2.045262         0.570025
 C         2.662515        -0.208235        -0.539931
 O         3.255075         0.480030        -1.587275
 C         2.646273        -1.661667        -0.182120
 H         0.021983         0.638212        -1.379342
 H        -0.791906         0.224720         0.096148
 H         0.020151         1.735838         0.019165
 H         1.264354        -1.877034         1.733257
 H         2.436990        -0.053664         2.892179
 H         3.717931        -0.820960         2.066937
 H         3.584545         2.043047        -0.298445
 H         2.763680         0.332881        -2.452598
 H         2.087573        -2.277048        -0.888143
 H         3.609108        -2.103251        -0.040798
