19
Iteration:  3171
 C         0.126342         0.708708        -0.245387
 C         1.431061         0.108175         0.071411
 C         1.796145        -1.244447         0.884086
 C         2.625211        -0.424396         1.967166
 C         2.683589         0.624932         0.808630
 O         3.023206         2.041119         0.944714
 C         2.784881        -0.120929        -0.614215
 O         3.228654         0.506329        -1.844876
 C         2.848456        -1.607922        -0.171421
 H        -0.789003         0.163222        -0.519927
 H        -0.262725         1.411140         0.570647
 H         0.364413         1.408747        -1.048644
 H         0.953256        -1.976384         1.277251
 H         1.965909        -0.209012         2.783439
 H         3.564096        -0.908978         2.158803
 H         3.591908         2.075730         0.170634
 H         2.387407         0.490972        -2.490209
 H         2.297853        -2.161909        -0.909238
 H         3.681192        -2.265611         0.097504
