19
Iteration:  1173
 C         0.051972         0.610854        -0.296004
 C         1.457298         0.062245         0.051687
 C         1.878877        -1.428131         0.637822
 C         2.430178        -0.585037         1.915834
 C         2.578553         0.566663         0.962761
 O         2.968220         1.879827         1.107536
 C         2.815453         0.070261        -0.606380
 O         3.401267         0.855884        -1.558644
 C         2.950280        -1.488065        -0.473939
 H         0.272207         1.637162        -0.485019
 H        -0.524661         0.112800        -1.022007
 H        -0.679391         0.576721         0.578456
 H         1.104771        -2.211818         0.683785
 H         1.601310        -0.429467         2.469238
 H         3.237096        -0.914732         2.443480
 H         3.322173         2.163181         0.254974
 H         2.799547         0.933583        -2.247276
 H         2.450714        -1.880319        -1.386504
 H         3.889124        -2.143323        -0.267663
