19
Iteration:  2652
 C         0.088648         0.749813        -0.326766
 C         1.453519         0.069976         0.161549
 C         1.784977        -1.085476         1.060433
 C         2.868087        -0.333768         1.934185
 C         2.697361         0.717198         0.772800
 O         3.095972         1.978301         0.663041
 C         2.683727        -0.215719        -0.533114
 O         3.164231         0.509640        -1.634868
 C         2.660096        -1.768037        -0.198097
 H        -0.004763         0.665219        -1.421052
 H        -0.595843         0.030294         0.106110
 H        -0.014158         1.818904        -0.121000
 H         0.828303        -1.624536         1.180308
 H         2.349861         0.185801         2.713071
 H         3.926885        -0.771880         2.090190
 H         3.544522         2.105600        -0.276084
 H         2.645606         0.110180        -2.444733
 H         2.086645        -2.354758        -0.896843
 H         3.561067        -2.263171         0.263551
