19
Iteration:  1557
 C         0.072098         0.664445        -0.292387
 C         1.378623        -0.012968         0.109281
 C         1.841471        -1.388597         0.780716
 C         2.585127        -0.485406         1.843851
 C         2.600292         0.615169         0.798501
 O         2.959472         1.902996         0.996538
 C         2.803128        -0.072556        -0.605072
 O         3.337876         0.801383        -1.488768
 C         2.847970        -1.483166        -0.419990
 H         0.147531         1.207375        -1.279919
 H        -0.750887        -0.017139        -0.309314
 H        -0.089014         1.579240         0.439335
 H         1.106396        -2.119861         1.063386
 H         1.833241        -0.306199         2.558741
 H         3.515291        -0.740873         2.411515
 H         3.907580         2.031253         0.569098
 H         3.067915         0.455609        -2.481373
 H         2.321074        -2.137944        -1.285052
 H         3.962828        -1.945562        -0.287680
