19
Iteration:  3767
 C         0.208917         0.654160        -0.318425
 C         1.442979         0.166755         0.144647
 C         1.739187        -1.142835         0.876696
 C         2.708057        -0.393404         1.943048
 C         2.706802         0.689555         0.854659
 O         3.037956         1.987514         0.930310
 C         2.757536        -0.182525        -0.613439
 O         3.247638         0.470000        -1.721844
 C         2.694295        -1.651095        -0.329979
 H        -0.592044        -0.111722        -0.259953
 H        -0.151865         1.491750         0.358276
 H         0.064976         1.153397        -1.377595
 H         0.954040        -1.901095         1.296758
 H         2.231172        -0.075182         2.926406
 H         3.568486        -0.933900         2.314847
 H         3.160597         2.444124         0.076194
 H         2.621623         0.561461        -2.377936
 H         2.106408        -2.255510        -0.982777
 H         3.707204        -2.067624         0.096501
