19
Iteration:  2826charge 0 multiplicity 1
 C         0.144728         0.706986        -0.347245
 C         1.375029         0.040508         0.273427
 C         1.800990        -1.227174         1.029972
 C         2.762820        -0.335630         1.919907
 C         2.730451         0.697803         0.726586
 O         3.139735         2.058649         0.695815
 C         2.728463        -0.215371        -0.516010
 O         3.178181         0.508407        -1.649802
 C         2.620999        -1.657767        -0.244306
 H        -0.796063         0.159581        -0.052967
 H         0.141886         1.793494        -0.140649
 H         0.227254         0.760955        -1.491669
 H         1.286797        -2.135089         1.326451
 H         2.220649        -0.013764         2.790124
 H         3.658960        -0.715714         2.353540
 H         3.450684         2.156760        -0.259999
 H         2.614070         0.695346        -2.325098
 H         2.025232        -2.281749        -0.979830
 H         3.451668        -2.288878         0.031920
