19
Iteration:  1495charge 0 multiplicity 1
 C         0.038257         0.705067        -0.398087
 C         1.348290         0.049140         0.104879
 C         1.945062        -1.323650         0.761474
 C         2.667950        -0.473163         1.854029
 C         2.570048         0.587645         0.839295
 O         2.943882         1.890547         1.143980
 C         2.725062        -0.067732        -0.553732
 O         3.372262         0.671801        -1.545913
 C         2.883411        -1.520896        -0.457416
 H        -0.049046         0.526348        -1.477233
 H        -0.900680         0.492361         0.098452
 H         0.150570         1.744716        -0.226454
 H         1.179339        -2.004708         1.021706
 H         1.927828        -0.424129         2.631477
 H         3.706957        -0.840524         2.104672
 H         3.392649         2.316195         0.330387
 H         2.729043         1.032027        -2.305995
 H         2.239686        -1.988027        -1.078053
 H         3.758934        -2.017677        -0.365494
