19
Iteration:   727charge 0 multiplicity 1
 C         0.102787         0.749286        -0.427196
 C         1.379870        -0.030219         0.036444
 C         1.937200        -1.420403         0.628296
 C         2.491948        -0.686231         1.857970
 C         2.565816         0.509988         0.895035
 O         2.818407         1.812966         1.278777
 C         2.847029         0.008986        -0.579482
 O         3.318981         1.029042        -1.458268
 C         3.051931        -1.489261        -0.529749
 H         0.463981         1.668963        -0.845828
 H        -0.355432         0.222241        -1.210556
 H        -0.594327         0.942977         0.425819
 H         1.352105        -2.410600         0.695649
 H         1.668575        -0.508101         2.539044
 H         3.382797        -1.073116         2.296067
 H         3.222656         2.339078         0.489050
 H         2.810943         0.941022        -2.276617
 H         2.539114        -2.001265        -1.378736
 H         4.116961        -1.978963        -0.324405
