19
Iteration:  3904charge 0 multiplicity 1
 C        -0.054831         0.725358        -0.132590
 C         1.322714         0.106502         0.079830
 C         1.735902        -1.133031         0.980908
 C         2.705592        -0.358815         1.872058
 C         2.654787         0.682096         0.782600
 O         3.072598         1.971490         0.834370
 C         2.774138        -0.144795        -0.643052
 O         3.486462         0.381001        -1.743565
 C         2.728595        -1.625180        -0.239908
 H         0.057388         1.279944        -1.091824
 H        -0.797109        -0.079297        -0.396304
 H        -0.363868         1.410415         0.647406
 H         0.960340        -1.776060         1.379605
 H         2.393973        -0.043815         2.899101
 H         3.787363        -0.736005         2.065396
 H         3.395613         2.389826         0.068408
 H         2.836158         0.657082        -2.368943
 H         2.072462        -2.294924        -0.989524
 H         3.645160        -2.163316         0.025371
