19
Iteration:  2192charge 0 multiplicity 1
 C         0.093058         0.608148        -0.224049
 C         1.450734         0.118223         0.091628
 C         1.776636        -1.249255         0.924334
 C         2.635174        -0.351765         1.855660
 C         2.692732         0.680673         0.733747
 O         3.141770         1.971874         0.877700
 C         2.721496        -0.122668        -0.617794
 O         3.250407         0.573087        -1.669575
 C         2.780494        -1.641990        -0.193640
 H        -0.129622         0.474493        -1.303831
 H        -0.711555        -0.023298         0.147329
 H         0.013349         1.616520        -0.171496
 H         0.898051        -1.790137         1.207948
 H         1.893133         0.006035         2.691670
 H         3.508481        -0.842225         2.456350
 H         3.370660         2.382568         0.017430
 H         2.574997         0.667588        -2.396640
 H         2.206462        -2.211799        -0.870644
 H         3.635158        -2.179516         0.146933
