19
Iteration:  2035charge 0 multiplicity 1
 C         0.077300         0.773008        -0.224387
 C         1.351310        -0.009886         0.077574
 C         1.849504        -1.326405         0.896293
 C         2.575281        -0.334315         1.839351
 C         2.620645         0.659943         0.755376
 O         3.083315         1.942565         0.957372
 C         2.712782        -0.106929        -0.639745
 O         3.253013         0.604378        -1.682788
 C         2.855351        -1.618396        -0.252221
 H        -0.588232         0.695569         0.652523
 H         0.320204         1.815053        -0.713941
 H        -0.568434         0.240981        -0.901381
 H         1.085357        -2.068707         1.183225
 H         2.105963         0.056137         2.774083
 H         3.697846        -0.662298         2.319942
 H         3.862917         2.121913         0.258818
 H         2.973797         0.141153        -2.468227
 H         2.709813        -2.340755        -0.995478
 H         3.835129        -1.878518         0.162434
