19
Iteration:  2592charge 0 multiplicity 1
 C         0.092365         0.737156        -0.301353
 C         1.403085         0.172253         0.095913
 C         1.834654        -1.158087         1.039066
 C         2.670011        -0.268626         1.928804
 C         2.658450         0.709036         0.777457
 O         3.240027         1.954783         0.818859
 C         2.751448        -0.189191        -0.557407
 O         3.082839         0.340973        -1.831984
 C         2.809756        -1.608942        -0.160744
 H        -0.310996         0.449636        -1.292343
 H        -0.639114         0.315074         0.416816
 H        -0.186762         1.813281        -0.180068
 H         1.091595        -1.900703         1.383573
 H         2.129052         0.108114         2.857842
 H         3.497180        -0.770240         2.283313
 H         3.516236         2.107484        -0.051811
 H         2.321922         0.190175        -2.320243
 H         2.346436        -2.460739        -0.851784
 H         3.766265        -1.993381         0.190661
