19
Iteration:  4802charge 0 multiplicity 1
 C         0.190551         0.873153        -0.145475
 C         1.465736         0.233757         0.151552
 C         1.738847        -1.012768         1.177497
 C         2.731196        -0.074037         1.972701
 C         2.834250         0.662065         0.666952
 O         3.290672         2.007570         0.357295
 C         2.689762        -0.263699        -0.609357
 O         2.920711        -0.032876        -1.879637
 C         2.638357        -1.692173         0.080490
 H         0.196548         1.669200        -0.914050
 H        -0.405790         0.039530        -0.570796
 H        -0.368613         1.148268         0.786558
 H         1.040257        -1.726877         1.613387
 H         2.289893         0.350764         2.977702
 H         3.647379        -0.692535         2.235167
 H         2.600031         2.601036         0.664586
 H         3.912171         0.290237        -1.867716
 H         2.102978        -2.427474        -0.527450
 H         3.465193        -2.261581         0.489719
