19
Iteration:  4868
 C         0.066357         0.824086        -0.164318
 C         1.367933         0.158777         0.274609
 C         1.797573        -0.988307         1.177173
 C         2.849129        -0.053618         1.956773
 C         2.820349         0.750730         0.628508
 O         3.314015         2.007539         0.331129
 C         2.544650        -0.321532        -0.538933
 O         3.034393         0.018772        -1.842413
 C         2.535275        -1.718749         0.056355
 H        -0.347224         1.504262         0.614232
 H         0.442157         1.467099        -0.989497
 H        -0.634697         0.008122        -0.470392
 H         1.100145        -1.513125         1.793622
 H         2.507290         0.523831         2.915529
 H         3.853852        -0.545787         2.223455
 H         3.700793         2.010292        -0.561262
 H         3.900839         0.288277        -1.727349
 H         2.010011        -2.446721        -0.559270
 H         3.435231        -2.232360         0.330886
