19
Iteration:  4453charge 0 multiplicity 1
 C         0.074229         0.815383        -0.303560
 C         1.371459         0.101517         0.193308
 C         1.770912        -1.077641         1.117322
 C         2.798938        -0.183543         1.833990
 C         2.659540         0.669601         0.669781
 O         3.237092         1.913983         0.503477
 C         2.623866        -0.223799        -0.527673
 O         3.197193         0.243879        -1.766343
 C         2.665369        -1.684107        -0.022774
 H        -0.547308         0.416422        -1.041230
 H        -0.535104         1.170882         0.637191
 H         0.422049         1.762289        -0.716924
 H         1.205699        -1.879414         1.603296
 H         2.485574         0.197390         2.813393
 H         3.806340        -0.845357         2.060580
 H         3.137929         2.307102         1.412216
 H         3.190427         1.222669        -1.689668
 H         2.130204        -2.408861        -0.684049
 H         3.511455        -2.179318         0.353133
