19
Iteration:   343
 C         0.152546         0.489606        -0.471808
 C         1.468623         0.039309        -0.044176
 C         1.939767        -1.362084         0.433471
 C         2.486240        -0.738002         1.750075
 C         2.493292         0.538387         0.921683
 O         2.730660         1.716102         1.526064
 C         2.852696         0.122137        -0.615116
 O         3.432880         1.186071        -1.304470
 C         2.962895        -1.500589        -0.629181
 H        -0.054038         0.192884        -1.471345
 H        -0.647717         0.404813         0.239099
 H         0.279913         1.636090        -0.677449
 H         1.151754        -2.161203         0.618146
 H         1.674254        -0.772772         2.590683
 H         3.459557        -1.005204         2.310630
 H         3.330776         2.162401         0.981780
 H         2.775632         1.381840        -2.101902
 H         2.447565        -1.960384        -1.576955
 H         4.019134        -2.055176        -0.478335
