19
Iteration:  1267
 C         0.207999         0.626432        -0.370166
 C         1.426142         0.045184         0.144886
 C         1.919425        -1.395370         0.754313
 C         2.561686        -0.567912         1.806589
 C         2.559145         0.615497         0.872352
 O         2.909845         1.932020         1.175793
 C         2.749809        -0.064837        -0.580407
 O         3.358207         0.876059        -1.534220
 C         2.807850        -1.589246        -0.506259
 H        -0.093900         1.462129         0.327707
 H         0.354842         0.969293        -1.446409
 H        -0.516544        -0.117240        -0.496125
 H         1.230805        -2.093139         1.110741
 H         1.721010        -0.358746         2.546058
 H         3.511310        -0.886712         2.297794
 H         3.216608         2.315977         0.326901
 H         2.852968         1.005406        -2.402166
 H         2.197391        -1.890815        -1.387088
 H         3.780989        -2.054271        -0.487349
