19
Iteration:  3635charge 0 multiplicity 1
 C         0.062239         0.702083        -0.302391
 C         1.357118         0.094780         0.140097
 C         1.759443        -1.208704         0.871377
 C         2.693641        -0.445714         1.863859
 C         2.672492         0.628278         0.809251
 O         3.034551         1.982590         0.976054
 C         2.804497        -0.118110        -0.554421
 O         3.357845         0.516216        -1.732106
 C         2.697287        -1.596259        -0.265287
 H        -0.185401         1.564622         0.269351
 H         0.148848         1.092179        -1.326012
 H        -0.770333        -0.025800        -0.286845
 H         1.126206        -2.081350         1.210036
 H         2.086967         0.198991         2.559554
 H         3.719823        -0.787819         1.995339
 H         3.728697         2.268056         0.391573
 H         2.623817         0.613250        -2.337323
 H         2.346449        -2.089430        -1.101632
 H         3.665170        -2.098452         0.070554
