19
Iteration:  3870charge 0 multiplicity 1
 C         0.028383         0.669403        -0.171939
 C         1.389338         0.157317         0.136340
 C         1.784125        -1.192160         0.938633
 C         2.608480        -0.320516         1.883539
 C         2.610816         0.693490         0.701039
 O         3.208389         1.939167         0.822172
 C         2.717289        -0.163234        -0.550849
 O         3.330509         0.521432        -1.640560
 C         2.740907        -1.650629        -0.307202
 H         0.053942         0.749553        -1.283543
 H        -0.760737        -0.070282         0.047915
 H        -0.289171         1.665321         0.171155
 H         1.007257        -1.793177         1.354292
 H         1.961598        -0.060200         2.750541
 H         3.689012        -0.566311         2.180549
 H         3.573842         2.133676        -0.061789
 H         3.197701         0.115290        -2.593014
 H         2.061789        -2.358635        -0.909067
 H         3.664031        -2.190802        -0.022221
