19
Iteration:   711
 C         0.187934         0.649628        -0.398603
 C         1.489354         0.081300         0.044935
 C         1.872596        -1.444513         0.508463
 C         2.546223        -0.724438         1.775225
 C         2.592655         0.505988         0.915269
 O         2.757998         1.902215         1.258299
 C         2.838975         0.049142        -0.519384
 O         3.328823         0.982993        -1.385907
 C         2.946644        -1.510167        -0.538294
 H         0.251536         1.534142        -1.106631
 H        -0.571656        -0.123118        -0.787270
 H        -0.250935         1.186733         0.429327
 H         1.074835        -2.084634         0.759070
 H         1.825290        -0.680710         2.668931
 H         3.405794        -1.147122         2.405268
 H         2.910154         2.284977         0.346534
 H         2.933886         0.823491        -2.341239
 H         2.788749        -2.001207        -1.497259
 H         3.877013        -1.916546        -0.174181
