19
Iteration:  3740charge 0 multiplicity 1
 C         0.060215         0.730085        -0.239601
 C         1.334948         0.070465         0.139234
 C         1.776512        -1.281682         0.896215
 C         2.649084        -0.339068         1.842171
 C         2.691388         0.664832         0.744741
 O         3.082293         1.973783         0.925081
 C         2.858209        -0.100592        -0.567862
 O         3.313885         0.505969        -1.737218
 C         2.733627        -1.619583        -0.251770
 H        -0.788492         0.089423         0.099348
 H        -0.168435         1.702087         0.265039
 H        -0.190721         0.902448        -1.247554
 H         1.165670        -2.047922         1.306063
 H         2.023267        -0.009394         2.652173
 H         3.455455        -0.710643         2.513771
 H         3.700002         2.372937         0.276880
 H         2.821826         0.184792        -2.442920
 H         2.134466        -2.139450        -1.121401
 H         3.594790        -2.199070         0.025804
