19
Iteration:  1789charge 0 multiplicity 1
 C         0.042195         0.717899        -0.265306
 C         1.340704         0.047458         0.089789
 C         1.966435        -1.320139         0.837295
 C         2.622984        -0.464446         1.918723
 C         2.556648         0.621367         0.813141
 O         2.954993         1.920331         0.906723
 C         2.801726        -0.098763        -0.580096
 O         3.349874         0.717905        -1.577794
 C         2.818371        -1.571823        -0.377746
 H        -0.867795         0.037260        -0.295242
 H        -0.164101         1.556911         0.398619
 H         0.039489         1.205825        -1.371531
 H         1.168670        -2.028621         1.238097
 H         1.933910        -0.122391         2.717046
 H         3.599846        -0.804374         2.347130
 H         3.891375         2.005270         0.468497
 H         3.148636         0.260753        -2.501255
 H         2.152419        -2.080385        -1.104576
 H         3.757588        -2.102076        -0.291510
