19
Iteration:  2663
 C         0.139959         0.708902        -0.304428
 C         1.366143         0.167722         0.204429
 C         1.769005        -1.199006         1.050866
 C         2.799529        -0.335979         1.907114
 C         2.687744         0.625779         0.739054
 O         3.111769         2.057581         0.579546
 C         2.679627        -0.200577        -0.535127
 O         3.230038         0.483807        -1.587601
 C         2.635068        -1.690268        -0.214049
 H         0.032188         0.627687        -1.396776
 H        -0.722915         0.216918         0.158889
 H        -0.062079         1.727539         0.043286
 H         1.213396        -1.825893         1.768759
 H         2.494163         0.048892         2.874544
 H         3.802508        -0.863589         2.120181
 H         3.566400         2.047928        -0.277992
 H         2.789689         0.306677        -2.407126
 H         2.161548        -2.417671        -0.861515
 H         3.656632        -2.131086         0.021965
