19
Iteration:  4578charge 0 multiplicity 1
 C         0.201439         0.867195        -0.307968
 C         1.412896         0.139616         0.276842
 C         1.693531        -1.148763         1.126095
 C         2.872911        -0.180976         1.936163
 C         2.716540         0.689901         0.695780
 O         3.191884         1.996514         0.552408
 C         2.706800        -0.239011        -0.533214
 O         3.026873         0.150519        -1.873081
 C         2.627930        -1.691817         0.006839
 H         0.333347         1.962561        -0.535256
 H        -0.175888         0.536362        -1.231982
 H        -0.604597         0.637681         0.406891
 H         1.011158        -1.764726         1.704167
 H         2.404253         0.315785         2.866127
 H         3.799144        -0.836653         2.122125
 H         2.846376         2.580704        -0.190374
 H         3.746079         0.695497        -1.789324
 H         2.147743        -2.202816        -0.790245
 H         3.530470        -2.211936         0.241835
