19
Iteration:  3345charge 0 multiplicity 1
 C         0.064396         0.700897        -0.447266
 C         1.364754         0.082555         0.126897
 C         1.804348        -1.259618         0.902771
 C         2.707639        -0.433465         1.956293
 C         2.694584         0.640565         0.792971
 O         3.163950         1.970601         0.948008
 C         2.670697        -0.185658        -0.572708
 O         3.197959         0.695027        -1.610811
 C         2.786337        -1.657045        -0.322413
 H        -0.266620         1.659078        -0.097496
 H        -0.012788         0.686881        -1.532193
 H        -0.793417         0.145460        -0.147801
 H         1.017366        -2.017841         1.290743
 H         2.194147        -0.002508         2.821139
 H         3.738701        -0.861747         2.341210
 H         3.557391         2.379146         0.230336
 H         2.961632         0.317100        -2.421232
 H         2.269931        -2.330859        -1.086244
 H         3.759222        -1.965081         0.066694
