19
Iteration:  1939
 C         0.066022         0.634873        -0.325558
 C         1.261801         0.001474         0.227254
 C         1.857917        -1.298975         0.889230
 C         2.674453        -0.398479         1.843222
 C         2.603994         0.626746         0.745188
 O         3.111025         1.954237         0.857026
 C         2.664309        -0.075677        -0.571489
 O         3.361915         0.684931        -1.546276
 C         2.786586        -1.554592        -0.287074
 H         0.374123         1.673803        -0.671257
 H        -0.256435         0.187383        -1.335124
 H        -0.811890         0.797807         0.319762
 H         1.142456        -2.072813         1.264914
 H         2.138124        -0.295305         2.835467
 H         3.615203        -0.817932         2.065180
 H         3.609054         1.948922         0.077251
 H         2.932193         0.671612        -2.385310
 H         2.221568        -2.160320        -1.115960
 H         3.815895        -2.065251        -0.173651
