19
Iteration:  2202charge 0 multiplicity 1
 C         0.054236         0.626705        -0.298160
 C         1.380132         0.063099         0.107868
 C         1.813361        -1.135753         0.895615
 C         2.680366        -0.402235         1.869688
 C         2.706968         0.630374         0.726877
 O         3.085118         1.941714         0.831069
 C         2.788012        -0.080548        -0.527046
 O         3.277563         0.555273        -1.659255
 C         2.718071        -1.606128        -0.171422
 H         0.046101         0.679476        -1.363058
 H        -0.801370         0.170973         0.235209
 H        -0.061253         1.589905         0.140575
 H         1.105325        -1.887422         1.273883
 H         2.017696        -0.007759         2.731260
 H         3.700029        -0.889101         2.209785
 H         3.435052         2.196762        -0.007682
 H         2.399628         0.537443        -2.211625
 H         2.309009        -2.149847        -0.959306
 H         3.686468        -2.023902         0.052777
