19
Iteration:  1454charge 0 multiplicity 1
 C         0.149960         0.603086        -0.318529
 C         1.442946         0.017896         0.047775
 C         1.764838        -1.230947         0.705978
 C         2.554246        -0.579579         1.810490
 C         2.618809         0.584254         0.796072
 O         2.974045         1.864493         1.123916
 C         2.863265         0.006664        -0.559492
 O         3.250022         0.787466        -1.573456
 C         2.891382        -1.490476        -0.321485
 H        -0.585471        -0.089486        -0.807929
 H        -0.453556         1.029631         0.606981
 H         0.334256         1.473015        -0.939423
 H         1.090621        -2.069087         0.844581
 H         1.896787        -0.138889         2.629874
 H         3.423086        -1.051965         2.183558
 H         3.387839         2.308911         0.404965
 H         2.804420         0.473402        -2.283312
 H         2.515502        -1.999240        -1.322105
 H         3.903977        -1.979808         0.048450
