19
Iteration:  2884charge 0 multiplicity 1
 C         0.018211         0.578474        -0.292402
 C         1.358746         0.079637         0.125182
 C         1.687927        -1.147452         1.015031
 C         2.647376        -0.338526         1.818258
 C         2.741298         0.701096         0.681815
 O         3.324980         1.936547         0.850276
 C         2.719393        -0.144459        -0.623097
 O         3.187626         0.539029        -1.712594
 C         2.786211        -1.618047        -0.112001
 H        -0.416314         0.783714         0.764692
 H        -0.128211         1.672147        -0.537226
 H        -0.781167        -0.025950        -0.789373
 H         1.056859        -1.920318         1.304739
 H         2.130661         0.313017         2.454250
 H         3.520819        -0.825649         2.286911
 H         3.603597         2.335215         0.055823
 H         2.475557         0.234863        -2.443533
 H         2.359856        -2.271521        -0.877064
 H         3.803759        -1.920397         0.312798
