19
Iteration:  2336
 C         0.024067         0.610343        -0.226817
 C         1.362345         0.157861         0.103045
 C         1.807202        -1.188831         0.973256
 C         2.656736        -0.299799         1.871113
 C         2.667841         0.697943         0.759984
 O         3.163003         1.998016         0.825838
 C         2.662469        -0.197075        -0.661369
 O         3.302237         0.480916        -1.685844
 C         2.760802        -1.633844        -0.233735
 H        -0.091331         1.611679         0.310558
 H        -0.166700         0.690470        -1.357773
 H        -0.694865        -0.020183         0.291741
 H         1.117243        -1.933527         1.350524
 H         2.075055         0.002265         2.887431
 H         3.667427        -0.655771         2.337413
 H         3.845846         2.065204         0.042755
 H         2.637770         0.530995        -2.482205
 H         2.397685        -2.523825        -0.738431
 H         3.800065        -1.872928         0.178716
