19
Iteration:   665
 C        -0.035657         0.648174        -0.382287
 C         1.343574         0.021689         0.035354
 C         1.931245        -1.388971         0.567258
 C         2.620760        -0.634799         1.768812
 C         2.521291         0.541643         0.894462
 O         2.778086         1.822691         1.304026
 C         2.723202         0.033305        -0.606137
 O         3.582462         0.958652        -1.340239
 C         2.949935        -1.464709        -0.607381
 H        -0.258172         0.548327        -1.488678
 H        -0.773258        -0.044832         0.089406
 H        -0.311243         1.695664        -0.211260
 H         1.469418        -2.294237         0.702897
 H         1.926268        -0.679306         2.561143
 H         3.516575        -0.892819         2.410770
 H         3.609232         2.118196         0.755526
 H         3.291188         1.099174        -2.303636
 H         2.569272        -1.978202        -1.480037
 H         3.865508        -1.827436        -0.383829
