19
Iteration:  4429charge 0 multiplicity 1
 C         0.176101         0.853819        -0.240672
 C         1.494677         0.133264         0.189746
 C         1.725466        -1.164191         1.091072
 C         2.772422        -0.221995         1.944392
 C         2.774936         0.666735         0.724202
 O         3.137611         2.057053         0.478863
 C         2.697765        -0.233865        -0.508589
 O         3.135154         0.191576        -1.811346
 C         2.586950        -1.731804        -0.133565
 H        -0.596193         0.108576        -0.473103
 H        -0.242593         1.578518         0.516787
 H         0.263509         1.343095        -1.239409
 H         0.975689        -1.756448         1.604904
 H         2.224735         0.068104         2.889829
 H         3.700196        -0.802928         2.366998
 H         2.793773         2.507725         1.303246
 H         3.439680         1.186569        -1.618861
 H         2.083089        -2.377270        -0.827384
 H         3.583325        -2.157242         0.064577
