19
Iteration:  1013
 C         0.103338         0.572024        -0.362795
 C         1.392560         0.050585        -0.001464
 C         1.796648        -1.402745         0.613630
 C         2.493376        -0.661617         1.883741
 C         2.506833         0.595994         0.961490
 O         3.002786         1.884122         1.164872
 C         2.776558         0.053773        -0.567615
 O         3.410105         0.879944        -1.535226
 C         2.951055        -1.447134        -0.458655
 H        -0.113265         0.441737        -1.447315
 H        -0.649693         0.119018         0.239745
 H        -0.056690         1.624784        -0.173866
 H         1.075543        -2.251529         0.851021
 H         1.876859        -0.504042         2.792809
 H         3.524296        -0.939773         2.080103
 H         3.473362         1.896553         0.370931
 H         2.694654         1.056844        -2.061683
 H         2.819735        -1.780594        -1.448889
 H         3.834099        -1.698422         0.007803
