19
Iteration:  3379
 C         0.194051         0.751306        -0.442232
 C         1.328367         0.070499         0.231383
 C         1.804364        -1.333280         0.938674
 C         2.725053        -0.497504         1.937117
 C         2.579945         0.629240         0.870942
 O         3.044922         1.995466         0.866467
 C         2.841612        -0.114309        -0.503141
 O         3.222258         0.710797        -1.687176
 C         2.722990        -1.648074        -0.311094
 H         0.429033         1.814372        -0.442996
 H         0.135048         0.471906        -1.501775
 H        -0.703320         0.506954         0.027199
 H         1.195769        -2.214798         1.228406
 H         2.061295        -0.163369         2.756450
 H         3.783620        -0.862676         2.213656
 H         3.379879         2.073662        -0.063760
 H         2.585945         0.515822        -2.437977
 H         2.127991        -2.263382        -1.026814
 H         3.699162        -2.152197        -0.178063
