19
Iteration:   559
 C         0.135624         0.725923        -0.514817
 C         1.390017         0.052792         0.014049
 C         1.895459        -1.403233         0.507436
 C         2.622254        -0.809848         1.812404
 C         2.532221         0.513924         0.944127
 O         2.731427         1.818604         1.382659
 C         2.803993         0.044696        -0.556256
 O         3.344115         1.019053        -1.401001
 C         3.017730        -1.450774        -0.535653
 H        -0.689142         0.364530         0.146749
 H         0.177231         1.872612        -0.551690
 H        -0.086230         0.443246        -1.520409
 H         1.170159        -2.300782         0.580542
 H         1.984449        -0.811784         2.721858
 H         3.670159        -1.124195         2.005386
 H         3.380909         2.287089         0.883873
 H         2.862291         0.920107        -2.339176
 H         2.874834        -1.942914        -1.518192
 H         3.997535        -1.870009        -0.054727
