19
Iteration:  4680charge 0 multiplicity 1
 C         0.075372         0.705048        -0.146930
 C         1.304042         0.157852         0.181416
 C         1.801038        -0.976204         1.178513
 C         2.783658        -0.089292         1.867019
 C         2.723090         0.704714         0.590434
 O         3.405583         1.935624         0.557086
 C         2.704259        -0.250426        -0.589874
 O         3.112155         0.136561        -1.867053
 C         2.571492        -1.704640         0.012824
 H        -0.838570         0.269220         0.409001
 H        -0.221996         1.728206        -0.177833
 H        -0.341853         0.486873        -1.158815
 H         0.951733        -1.599461         1.575308
 H         2.249250         0.457358         2.775793
 H         3.806453        -0.443500         2.177427
 H         2.960913         2.605961         0.079187
 H         3.785966         0.849787        -1.675173
 H         1.831531        -2.325178        -0.468027
 H         3.315357        -2.450299         0.373779
