19
Iteration:  4449
 C         0.082071         0.836572        -0.288079
 C         1.378372         0.128119         0.191131
 C         1.792165        -1.068308         1.117442
 C         2.799066        -0.252347         1.842598
 C         2.670141         0.655144         0.667366
 O         3.215663         1.957536         0.508464
 C         2.629864        -0.241985        -0.564454
 O         3.186267         0.238829        -1.750389
 C         2.667647        -1.696841        -0.014190
 H        -0.607338         0.334299        -1.048926
 H        -0.394742         1.145484         0.600818
 H         0.439980         1.724486        -0.890404
 H         1.183712        -1.841547         1.547147
 H         2.441944         0.274854         2.782415
 H         3.720273        -0.734815         2.025085
 H         3.147433         2.362013         1.367588
 H         3.125827         1.209960        -1.653756
 H         2.090070        -2.326939        -0.665382
 H         3.518137        -2.315296         0.453174
