19
Iteration:  2148charge 0 multiplicity 1
 C         0.050835         0.627895        -0.306769
 C         1.339476         0.096712         0.173491
 C         1.776833        -1.275650         0.912232
 C         2.592706        -0.367823         1.807606
 C         2.649914         0.654354         0.749271
 O         3.190948         1.941502         0.890634
 C         2.734943        -0.068473        -0.582862
 O         3.248001         0.562378        -1.656480
 C         2.818938        -1.517701        -0.194479
 H        -0.662956        -0.134611        -0.733166
 H        -0.478222         0.837112         0.669662
 H         0.107236         1.488209        -0.954920
 H         1.308636        -2.209801         1.227900
 H         2.064906         0.079520         2.768331
 H         3.637314        -0.760901         2.199359
 H         3.597397         2.060367         0.064764
 H         2.955534         0.029945        -2.511487
 H         2.403022        -1.995829        -1.078119
 H         3.808312        -1.928020        -0.004666
