19
Iteration:  3680charge 0 multiplicity 1
 C         0.063033         0.749142        -0.160342
 C         1.363713         0.027355         0.199530
 C         1.686183        -1.289688         0.870955
 C         2.622317        -0.379655         1.880313
 C         2.680220         0.652158         0.700947
 O         3.081073         1.938544         0.701016
 C         2.780241        -0.108204        -0.575680
 O         3.371651         0.644606        -1.517466
 C         2.814236        -1.635701        -0.288885
 H        -0.492640         0.960963         0.723855
 H         0.332528         1.662668        -0.642716
 H        -0.543123         0.081671        -0.834127
 H         0.839342        -2.050356         1.167717
 H         1.781685        -0.068593         2.548700
 H         3.486314        -0.941400         2.229635
 H         3.457309         2.155920        -0.132300
 H         3.060507         0.324833        -2.367883
 H         2.302366        -2.141311        -1.054590
 H         3.746538        -2.181037        -0.001794
