19
Iteration:   929
 C         0.028953         0.743249        -0.416584
 C         1.417467         0.084631         0.045924
 C         1.827730        -1.423223         0.581968
 C         2.604682        -0.749087         1.841112
 C         2.605025         0.474236         0.892383
 O         2.785195         1.971405         1.235994
 C         2.813659        -0.024752        -0.564611
 O         3.386652         0.879428        -1.487667
 C         3.030451        -1.457862        -0.454211
 H        -0.845556         0.005289        -0.376078
 H        -0.338610         1.515633         0.365235
 H         0.137737         1.153358        -1.403018
 H         1.208733        -2.308662         0.755591
 H         2.183118        -0.378663         2.878576
 H         3.637636        -1.213240         2.088322
 H         3.213170         2.318488         0.414581
 H         2.846785         0.655444        -2.327956
 H         2.598854        -1.898685        -1.474262
 H         3.997823        -1.906931         0.102057
