19
Iteration:    98
 C         0.109452         0.578737        -0.534586
 C         1.449483         0.027438        -0.098001
 C         1.828713        -1.384140         0.365254
 C         2.596597        -0.893451         1.655256
 C         2.430265         0.438347         0.939639
 O         2.703666         1.650292         1.592354
 C         2.911477         0.133750        -0.548059
 O         3.445367         1.300115        -1.214580
 C         3.044749        -1.371744        -0.623741
 H        -0.007930         0.418813        -1.673845
 H        -0.683426         0.069484         0.017468
 H        -0.180203         1.572095        -0.260246
 H         1.058740        -2.211080         0.357032
 H         2.112473        -1.016314         2.704952
 H         3.624464        -1.365782         1.741377
 H         2.874413         2.253056         0.918443
 H         2.788377         1.578014        -1.784236
 H         2.926271        -1.779037        -1.631679
 H         3.979031        -1.748660        -0.179658
