19
Iteration:   995charge 0 multiplicity 1
 C         0.053309         0.573597        -0.383648
 C         1.395676         0.078987         0.085077
 C         1.805211        -1.305382         0.606401
 C         2.532534        -0.678444         1.768362
 C         2.636702         0.589618         0.867293
 O         2.913273         1.891871         1.139438
 C         2.861685         0.058811        -0.548535
 O         3.351487         0.902156        -1.407640
 C         2.933837        -1.559898        -0.456900
 H        -0.292787         0.053986        -1.354803
 H        -0.716757         0.277294         0.441101
 H         0.137114         1.657298        -0.507440
 H         1.114409        -2.134833         0.802327
 H         1.768632        -0.409680         2.592569
 H         3.455506        -1.168976         2.151040
 H         3.657513         2.182758         0.672202
 H         2.964631         1.029768        -2.212231
 H         2.351290        -2.044029        -1.363409
 H         4.024324        -1.911798        -0.079741
