19
Iteration:  1076
 C         0.121185         0.618474        -0.378941
 C         1.470733         0.064763         0.048904
 C         1.839207        -1.301113         0.650361
 C         2.514294        -0.703251         1.866501
 C         2.573965         0.522716         0.942164
 O         2.857711         1.913301         1.138576
 C         2.902161         0.006974        -0.542447
 O         3.299780         0.924719        -1.536984
 C         2.896058        -1.518408        -0.438235
 H         0.276314         0.889677        -1.391142
 H        -0.697408        -0.039111        -0.259666
 H        -0.138265         1.611352         0.163899
 H         1.146449        -2.151578         0.822107
 H         2.011780        -0.483625         2.760369
 H         3.627396        -1.086463         1.962882
 H         3.544114         2.183141         0.615685
 H         2.933064         0.771701        -2.361153
 H         2.477803        -1.922435        -1.348140
 H         3.809828        -2.139213        -0.261867
