19
Iteration:   317charge 0 multiplicity 1
 C         0.089384         0.553773        -0.542981
 C         1.432833         0.042286        -0.052102
 C         1.800779        -1.443890         0.446513
 C         2.498747        -0.880591         1.698285
 C         2.588688         0.519564         0.919375
 O         2.809301         1.765058         1.510830
 C         2.903321         0.111842        -0.506786
 O         3.367004         1.182369        -1.273949
 C         3.040757        -1.352273        -0.575731
 H        -0.426893        -0.300213        -1.113953
 H        -0.610959         1.014072         0.219904
 H         0.204520         1.264342        -1.295210
 H         1.176786        -2.228969         0.622531
 H         1.843824        -0.777906         2.485530
 H         3.420120        -1.252545         2.019448
 H         3.032132         2.241592         0.749666
 H         2.804365         1.034189        -2.166053
 H         2.803501        -1.676609        -1.550730
 H         4.005255        -1.759522        -0.275454
