19
Iteration:  3544charge 0 multiplicity 1
 C         0.109699         0.769288        -0.353006
 C         1.417336         0.108238         0.165376
 C         1.792818        -1.297593         0.886004
 C         2.691620        -0.512068         1.891485
 C         2.617708         0.645147         0.839850
 O         2.993273         1.976539         0.832895
 C         2.791481        -0.101787        -0.546108
 O         3.290862         0.647845        -1.635981
 C         2.775615        -1.662494        -0.234646
 H         0.247154         1.836226        -0.733020
 H        -0.408235         0.355305        -1.279035
 H        -0.677527         0.731189         0.389713
 H         1.077949        -1.990106         1.156510
 H         2.053929        -0.180750         2.743030
 H         3.702366        -0.942165         2.138229
 H         3.570881         1.836081         0.130950
 H         2.736511         0.740370        -2.348701
 H         2.439219        -2.234081        -1.105383
 H         3.684278        -2.208697         0.068490
