19
Iteration:  4059
 C         0.050219         0.594109        -0.303010
 C         1.414239         0.191753         0.133314
 C         1.724542        -1.149400         0.997642
 C         2.675329        -0.282544         1.860229
 C         2.726317         0.670773         0.739585
 O         3.267247         1.950941         0.813788
 C         2.683786        -0.205158        -0.578281
 O         3.238686         0.495644        -1.674556
 C         2.647499        -1.617183        -0.135649
 H        -0.712650         0.165047         0.338930
 H         0.053830         1.749067        -0.345051
 H        -0.157144         0.304467        -1.326680
 H         1.056485        -1.938814         1.365631
 H         2.179360         0.101596         2.744309
 H         3.616444        -0.767945         2.022799
 H         3.589875         2.202126        -0.091382
 H         2.780007         0.360775        -2.558838
 H         2.156078        -2.361754        -0.832623
 H         3.612702        -2.071082        -0.013724
