19
Iteration:  2523
 C         0.056969         0.731791        -0.197794
 C         1.318189         0.033879         0.268892
 C         1.756783        -1.216209         1.032204
 C         2.783138        -0.368496         1.847123
 C         2.645843         0.702401         0.732340
 O         3.074788         1.997840         0.552755
 C         2.689857        -0.163732        -0.542219
 O         3.392132         0.489371        -1.584507
 C         2.696228        -1.635840        -0.217677
 H        -0.850339         0.016827        -0.325103
 H        -0.170568         1.594422         0.567326
 H         0.134815         1.341601        -1.150585
 H         0.985627        -1.821673         1.585913
 H         2.242896         0.085110         2.786465
 H         3.816494        -0.742113         2.155841
 H         3.437094         2.117049        -0.382540
 H         2.977593         0.167233        -2.379601
 H         2.142061        -2.212097        -1.045790
 H         3.779774        -2.035005        -0.285416
