19
Iteration:   685
 C         0.059248         0.580750        -0.371838
 C         1.376763         0.043870         0.013555
 C         1.852014        -1.420085         0.601880
 C         2.573006        -0.713350         1.777366
 C         2.531799         0.530620         0.854880
 O         2.743904         1.843444         1.269208
 C         2.916746         0.092776        -0.535850
 O         3.512417         0.997840        -1.386620
 C         2.922515        -1.447110        -0.532016
 H         0.032510         0.996623        -1.390048
 H        -0.766587        -0.095267        -0.283736
 H        -0.080081         1.533624         0.242299
 H         1.026426        -2.176374         0.746963
 H         2.154087        -0.632277         2.743173
 H         3.554279        -1.177927         1.941160
 H         3.163942         2.272736         0.510803
 H         3.051424         0.923475        -2.345791
 H         2.467470        -1.821035        -1.441408
 H         3.837815        -1.971640        -0.425386
