19
Iteration:  2875charge 0 multiplicity 1
 C        -0.004736         0.598793        -0.261231
 C         1.347365         0.109161         0.122269
 C         1.737779        -1.172495         0.960767
 C         2.666528        -0.317376         1.836422
 C         2.758678         0.703091         0.718965
 O         3.329585         1.957262         0.845882
 C         2.633063        -0.122453        -0.570106
 O         3.171856         0.548640        -1.776433
 C         2.790181        -1.679199        -0.072169
 H        -0.725259         0.495838         0.560773
 H         0.116096         1.669739        -0.569235
 H        -0.388361         0.107020        -1.160797
 H         0.866620        -1.809027         1.342536
 H         2.082900         0.065193         2.735296
 H         3.509987        -0.886319         2.346025
 H         3.725490         2.177635         0.015087
 H         2.582133         0.339707        -2.626004
 H         2.480009        -2.469774        -0.748812
 H         3.914135        -1.901083         0.264908
