19
Iteration:   964
 C         0.153488         0.584124        -0.368510
 C         1.382014        -0.030565         0.068347
 C         1.849808        -1.352801         0.669829
 C         2.599529        -0.619275         1.876564
 C         2.507870         0.582980         0.854514
 O         2.811610         1.858997         1.203835
 C         2.807345         0.046244        -0.624758
 O         3.431582         0.948727        -1.429898
 C         2.847971        -1.499992        -0.534572
 H        -0.553084        -0.015569        -0.930203
 H        -0.376871         1.183678         0.440115
 H         0.369122         1.412170        -1.070643
 H         1.158795        -2.168995         0.876631
 H         2.063864        -0.346126         2.820014
 H         3.728809        -0.844196         2.106779
 H         3.666457         2.007034         0.640486
 H         3.464669         0.782699        -2.467262
 H         2.265484        -2.062467        -1.360642
 H         3.864172        -2.078872        -0.622652
