19
Iteration:  4214
 C         0.200231         0.781630        -0.206999
 C         1.488873         0.098404         0.176853
 C         1.716253        -1.123021         0.989868
 C         2.667467        -0.259936         1.899826
 C         2.757765         0.607620         0.746427
 O         3.034562         2.062059         0.646952
 C         2.695846        -0.269986        -0.609286
 O         3.183747         0.346423        -1.745869
 C         2.779666        -1.717828        -0.139628
 H         0.138176         1.392738        -1.127447
 H        -0.743858         0.092034        -0.357352
 H         0.006996         1.532030         0.564316
 H         0.824033        -1.536554         1.506861
 H         2.098615         0.224466         2.636251
 H         3.524839        -0.702720         2.315275
 H         4.026085         2.103521         0.815840
 H         2.510251         0.831444        -2.435162
 H         2.071252        -2.431115        -0.754634
 H         3.706345        -2.139116         0.212881
