19
Iteration:   744charge 0 multiplicity 1
 C         0.203078         0.689239        -0.419207
 C         1.384219        -0.093244        -0.044084
 C         1.904517        -1.481904         0.651128
 C         2.508204        -0.618883         1.808783
 C         2.479761         0.551902         0.869658
 O         2.890488         1.745757         1.294524
 C         2.743078         0.069552        -0.565881
 O         3.306566         0.984034        -1.462644
 C         3.019014        -1.396188        -0.461895
 H         0.505602         1.788606        -0.345652
 H        -0.275635         0.605930        -1.481616
 H        -0.619528         0.416925         0.235078
 H         1.301529        -2.370151         0.819211
 H         1.683217        -0.319800         2.550396
 H         3.586517        -0.892830         2.064598
 H         3.574756         2.109328         0.652201
 H         2.792551         1.059987        -2.212622
 H         2.721351        -1.823547        -1.419516
 H         3.995138        -1.584312        -0.122891
