19
Iteration:  2613
 C         0.099427         0.700719        -0.324811
 C         1.354828         0.103637         0.212377
 C         1.830098        -1.240174         0.983789
 C         2.732772        -0.193351         1.959000
 C         2.721836         0.677963         0.733024
 O         3.257371         1.980992         0.843862
 C         2.625083        -0.170879        -0.574931
 O         3.100482         0.321031        -1.795167
 C         2.800432        -1.591430        -0.158198
 H         0.077650         0.653964        -1.445751
 H        -0.893026         0.399525         0.089448
 H         0.112109         1.812468        -0.133339
 H         0.994802        -1.782189         1.412984
 H         1.898741         0.134147         2.656662
 H         3.634603        -0.529752         2.463696
 H         3.402630         2.300206        -0.082760
 H         2.440186         0.222783        -2.533385
 H         2.183765        -2.138858        -0.962796
 H         3.783873        -2.036680        -0.111558
