19
Iteration:   404charge 0 multiplicity 1
 C         0.085127         0.668427        -0.362563
 C         1.408864         0.068302        -0.081765
 C         1.890443        -1.473051         0.428583
 C         2.521157        -0.790283         1.777673
 C         2.483145         0.415678         0.919038
 O         2.685484         1.766959         1.321796
 C         2.826534         0.072127        -0.580119
 O         3.469725         1.193757        -1.256117
 C         3.089157        -1.453373        -0.551630
 H         0.014512         1.253166        -1.346401
 H        -0.677621        -0.149780        -0.519385
 H        -0.135974         1.222498         0.464200
 H         1.225997        -2.241506         0.440635
 H         1.948418        -0.715451         2.641526
 H         3.540957        -1.096802         1.927910
 H         3.292810         2.322218         0.731730
 H         3.249906         0.957840        -2.190547
 H         2.781320        -1.840032        -1.448332
 H         3.943980        -1.853662        -0.226175
