19
Iteration:   668charge 0 multiplicity 1
 C        -0.039007         0.657585        -0.399193
 C         1.373374         0.022508         0.028467
 C         1.920140        -1.390748         0.565087
 C         2.650009        -0.642657         1.766330
 C         2.516157         0.523116         0.911114
 O         2.773534         1.820252         1.294559
 C         2.724737         0.038719        -0.582008
 O         3.590579         0.975923        -1.358099
 C         2.920891        -1.468326        -0.602189
 H        -0.237394         0.628562        -1.504636
 H        -0.789732        -0.063443         0.073831
 H        -0.352572         1.632145        -0.101116
 H         1.470714        -2.324426         0.766792
 H         1.829700        -0.654927         2.586150
 H         3.546662        -0.854642         2.424530
 H         3.480311         2.138536         0.772118
 H         3.255971         1.077778        -2.348137
 H         2.549804        -1.975457        -1.530845
 H         3.952354        -1.902764        -0.261448
