19
Iteration:  3802
 C         0.093343         0.784386        -0.472535
 C         1.360921        -0.001307         0.133613
 C         1.848091        -1.238818         0.998236
 C         2.720158        -0.357167         1.905446
 C         2.614570         0.642876         0.757863
 O         3.186983         1.930547         0.899309
 C         2.725701        -0.170611        -0.515600
 O         3.168136         0.585705        -1.652323
 C         2.711923        -1.579748        -0.219064
 H        -0.492733         0.162872        -1.157185
 H        -0.534077         0.951546         0.368527
 H         0.450518         1.729875        -1.004223
 H         1.259996        -2.032780         1.495436
 H         2.249412        -0.020547         2.850382
 H         3.700627        -0.838988         2.080871
 H         3.540280         2.199928        -0.007944
 H         2.742296         0.265242        -2.485946
 H         2.154277        -2.163144        -0.947681
 H         3.677822        -2.153793        -0.099421
