19
Iteration:   381charge 0 multiplicity 1
 C         0.063160         0.600656        -0.415355
 C         1.361948        -0.018527         0.054466
 C         1.876654        -1.424032         0.394997
 C         2.539406        -0.889624         1.672698
 C         2.554330         0.470636         0.984672
 O         2.701484         1.875667         1.342045
 C         2.813368         0.122312        -0.501347
 O         3.482735         1.033804        -1.291548
 C         3.073699        -1.285131        -0.566413
 H         0.207905         0.859356        -1.514966
 H        -0.892032         0.012826        -0.438823
 H        -0.028273         1.474527         0.140889
 H         1.216051        -2.255618         0.394635
 H         1.746677        -0.903423         2.383120
 H         3.495180        -1.330498         1.979706
 H         3.420834         2.223056         0.810512
 H         3.003580         1.053655        -2.202786
 H         2.879307        -1.623334        -1.546775
 H         3.935095        -1.654440        -0.177132
