19
Iteration:  4926
 C         0.177141         0.801264        -0.225753
 C         1.372258         0.147408         0.292044
 C         1.836746        -0.975216         1.324089
 C         2.755395         0.042606         1.915782
 C         2.782631         0.723813         0.601533
 O         3.378340         2.024395         0.383343
 C         2.533426        -0.328564        -0.606874
 O         2.950250         0.040692        -1.847096
 C         2.592752        -1.722126         0.074757
 H        -0.556263         0.055898        -0.015457
 H        -0.083047         1.772319         0.329965
 H         0.213559         1.006144        -1.315427
 H         1.339295        -1.708753         1.973403
 H         2.239376         0.638035         2.702704
 H         3.752589        -0.442431         2.275573
 H         4.164798         2.000155        -0.206950
 H         2.961187        -0.816667        -2.438171
 H         1.878055        -2.368934        -0.519825
 H         3.550204        -2.137784         0.203514
