19
Iteration:  4238
 C         0.121560         0.773459        -0.216002
 C         1.454152         0.120384         0.134672
 C         1.783876        -1.240945         1.039066
 C         2.658506        -0.249817         2.009154
 C         2.703155         0.631515         0.758131
 O         3.119135         1.992954         0.606437
 C         2.800762        -0.167888        -0.557649
 O         3.179669         0.343512        -1.790430
 C         2.693651        -1.621492        -0.127326
 H         0.278914         1.696641        -0.860367
 H        -0.335877         0.115670        -0.921130
 H        -0.613013         1.127097         0.538480
 H         1.129763        -2.038079         1.493256
 H         1.945312         0.317671         2.629506
 H         3.539116        -0.647009         2.491445
 H         4.010893         1.903138         0.162123
 H         2.485104         0.897227        -2.292220
 H         1.970949        -2.133088        -0.734702
 H         3.551529        -2.258620         0.040410
