19
Iteration:  2536
 C         0.072609         0.750991        -0.193991
 C         1.340884         0.111853         0.179790
 C         1.899522        -1.239972         0.978838
 C         2.773384        -0.257360         1.944282
 C         2.586474         0.673308         0.780569
 O         3.088371         1.957641         0.568845
 C         2.686312        -0.163592        -0.531799
 O         3.340917         0.486419        -1.611597
 C         2.651239        -1.638276        -0.243257
 H        -0.696671        -0.003927        -0.527751
 H        -0.411397         1.347317         0.636397
 H         0.315669         1.346376        -1.089337
 H         1.293641        -2.079794         1.419691
 H         2.180166        -0.081904         2.897408
 H         3.723140        -0.657717         2.093419
 H         3.578346         1.827653        -0.306125
 H         2.946401         0.174776        -2.515674
 H         1.906037        -2.244498        -0.906616
 H         3.501783        -2.257036         0.100253
