19
Iteration:  4789charge 0 multiplicity 1
 C         0.133094         0.851488        -0.179270
 C         1.413116         0.095036         0.191419
 C         1.749727        -1.009038         1.174703
 C         2.742505        -0.098559         1.997009
 C         2.802390         0.725787         0.637252
 O         3.326881         1.948899         0.364429
 C         2.710656        -0.289215        -0.496191
 O         2.942112        -0.007002        -1.926663
 C         2.655769        -1.647471         0.051026
 H         0.369402         1.416848        -1.139901
 H        -0.747849         0.268320        -0.291079
 H        -0.042811         1.662783         0.550895
 H         1.003951        -1.655848         1.712546
 H         2.180078         0.602977         2.716560
 H         3.687075        -0.470730         2.481620
 H         2.841240         2.602808         0.963892
 H         3.687092         0.545401        -2.154933
 H         1.974213        -2.155256        -0.559253
 H         3.583662        -2.135134         0.267784
