19
Iteration:  3701charge 0 multiplicity 1
 C         0.010013         0.780577        -0.185578
 C         1.373725         0.134548         0.019857
 C         1.792138        -1.245524         0.882706
 C         2.649837        -0.477481         1.939470
 C         2.568184         0.640703         0.789760
 O         3.092027         1.910432         0.718407
 C         2.698073        -0.140668        -0.606657
 O         3.362261         0.645078        -1.599372
 C         2.809950        -1.597268        -0.204555
 H        -0.515395         0.465005         0.718780
 H         0.210637         1.874693        -0.137708
 H        -0.547168         0.490302        -1.143361
 H         1.209047        -2.179308         1.261473
 H         2.015050        -0.153353         2.843880
 H         3.632057        -0.901482         2.111872
 H         3.793739         1.775353        -0.036876
 H         3.247327         0.084973        -2.479731
 H         2.396499        -2.292495        -0.877233
 H         3.791417        -1.868681         0.302171
