19
Iteration:   599
 C         0.150507         0.614351        -0.362480
 C         1.434690        -0.038096         0.029135
 C         1.860842        -1.425989         0.470438
 C         2.433114        -0.642211         1.798923
 C         2.563958         0.485704         0.863945
 O         2.855997         1.822354         1.322990
 C         2.783107         0.075879        -0.585311
 O         3.407992         1.040387        -1.341268
 C         3.018968        -1.448835        -0.580114
 H        -0.614308        -0.202683        -0.361844
 H        -0.127116         1.390159         0.362811
 H         0.076937         1.056443        -1.377917
 H         1.224361        -2.168332         0.692928
 H         1.590526        -0.628724         2.455439
 H         3.272857        -1.131074         2.377777
 H         2.943783         2.408974         0.504390
 H         3.045726         1.130000        -2.174087
 H         2.780694        -2.014023        -1.505512
 H         3.970081        -1.773292        -0.182827
