19
Iteration:  4630charge 0 multiplicity 1
 C         0.145179         0.844078        -0.154726
 C         1.399032         0.095900         0.223466
 C         1.810328        -1.095276         1.147044
 C         2.710829        -0.109784         1.920585
 C         2.728392         0.718189         0.727933
 O         3.257255         1.940624         0.521261
 C         2.730689        -0.278874        -0.577945
 O         3.016513         0.166667        -1.884082
 C         2.679538        -1.661785        -0.043420
 H        -0.160859         1.727578         0.376572
 H         0.475557         1.453655        -1.113131
 H        -0.808239         0.356080        -0.410060
 H         1.038711        -1.717851         1.646995
 H         2.053405         0.347548         2.611729
 H         3.588103        -0.615732         2.403961
 H         2.661586         2.505459        -0.051003
 H         3.963543        -0.109623        -2.052491
 H         2.065270        -2.368506        -0.720357
 H         3.622151        -2.144558         0.275525
