19
Iteration:  2301charge 0 multiplicity 1
 C        -0.000334         0.709282        -0.168541
 C         1.369245         0.044252         0.160817
 C         1.824921        -1.246702         0.891834
 C         2.591975        -0.265322         1.868669
 C         2.718402         0.668037         0.759562
 O         3.109749         1.992738         0.825871
 C         2.821920        -0.141213        -0.582903
 O         3.285643         0.387461        -1.712255
 C         2.805411        -1.557993        -0.272897
 H         0.091613         1.837641        -0.096342
 H        -0.528776         0.494225        -1.204764
 H        -0.761088         0.319352         0.608677
 H         1.040953        -1.868102         1.209865
 H         1.798703         0.136565         2.616068
 H         3.493158        -0.751363         2.358680
 H         3.522041         2.171553        -0.050440
 H         2.451959         0.552707        -2.346678
 H         2.455356        -2.356583        -0.893842
 H         3.868020        -1.833965         0.191416
