19
Iteration:  1331
 C         0.022783         0.673324        -0.341924
 C         1.401265         0.005818         0.062985
 C         1.904312        -1.383313         0.727175
 C         2.556668        -0.549406         1.915750
 C         2.582968         0.574915         0.865937
 O         2.963911         1.926264         1.131965
 C         2.738391         0.015369        -0.593542
 O         3.358490         0.791694        -1.561576
 C         2.942419        -1.503572        -0.487592
 H        -0.725617         0.576592         0.488608
 H         0.234188         1.772710        -0.480845
 H        -0.419230         0.379124        -1.282378
 H         1.161149        -2.121867         1.038815
 H         1.657040        -0.475020         2.438646
 H         3.307671        -0.940290         2.513836
 H         3.828878         2.048439         0.599210
 H         2.954844         0.534546        -2.507062
 H         2.379687        -1.998673        -1.372730
 H         4.006175        -1.940085        -0.243586
