19
Iteration:  2054charge 0 multiplicity 1
 C         0.074630         0.732255        -0.235506
 C         1.383603         0.080529         0.102540
 C         1.748702        -1.266062         0.871322
 C         2.675581        -0.434383         1.847105
 C         2.657866         0.639984         0.775826
 O         3.020366         1.944644         0.859482
 C         2.745794        -0.144874        -0.581634
 O         3.245744         0.595126        -1.677996
 C         2.906230        -1.567483        -0.190751
 H        -0.725960         0.588417         0.475418
 H         0.296983         1.755817        -0.067465
 H        -0.203969         0.540087        -1.302586
 H         1.063152        -2.014039         1.209082
 H         2.033085        -0.192182         2.645805
 H         3.529437        -0.925211         2.342139
 H         3.650187         2.218080         0.091035
 H         2.809961         0.378917        -2.445738
 H         2.448434        -2.165150        -1.003873
 H         3.857476        -1.985416         0.177496
