19
Iteration:  1206
 C         0.077525         0.566169        -0.358033
 C         1.368991        -0.004693         0.039047
 C         1.760463        -1.346060         0.654648
 C         2.591918        -0.522082         1.814948
 C         2.617194         0.572649         0.835619
 O         2.982554         1.877788         1.149076
 C         2.700767        -0.044513        -0.624227
 O         3.356009         0.914617        -1.433659
 C         2.938441        -1.534167        -0.401696
 H         0.052708         1.575400        -0.015102
 H        -0.104454         0.726724        -1.387421
 H        -0.815032         0.176353         0.234543
 H         0.987012        -2.116834         0.849423
 H         2.068659        -0.290662         2.706225
 H         3.536026        -0.865927         2.142663
 H         3.825425         2.106492         0.569938
 H         3.018863         0.935158        -2.465506
 H         2.660656        -2.003926        -1.360461
 H         4.012624        -1.851263        -0.137863
