19
Iteration:  2189
 C         0.103460         0.605207        -0.235213
 C         1.456668         0.124029         0.103957
 C         1.771260        -1.257346         0.918907
 C         2.606807        -0.333313         1.875489
 C         2.689953         0.679247         0.747514
 O         3.156316         1.985760         0.895331
 C         2.713794        -0.162873        -0.615434
 O         3.241122         0.584577        -1.690246
 C         2.789970        -1.647267        -0.219952
 H        -0.182128         0.396179        -1.260993
 H        -0.691637        -0.042179         0.225355
 H        -0.033040         1.718843        -0.150601
 H         0.865697        -1.864027         1.271614
 H         1.954428         0.059302         2.644440
 H         3.491317        -0.781467         2.414136
 H         3.371488         2.390615        -0.044578
 H         2.724352         0.694934        -2.439036
 H         2.214915        -2.264615        -0.909185
 H         3.679611        -2.208801         0.158009
