19
Iteration:  3302
 C        -0.019568         0.556826        -0.229605
 C         1.369943         0.160199         0.065811
 C         1.780030        -1.201079         0.852510
 C         2.567379        -0.336364         1.941732
 C         2.725539         0.656593         0.766783
 O         3.195977         1.960925         0.964031
 C         2.694338        -0.094859        -0.619077
 O         3.318658         0.533091        -1.612508
 C         2.826828        -1.631605        -0.367145
 H        -0.340345         1.283974         0.504927
 H        -0.067131         1.009790        -1.216846
 H        -0.722858        -0.239156        -0.183691
 H         0.857846        -1.864874         1.105784
 H         1.846612        -0.077941         2.691005
 H         3.535606        -0.878538         2.319883
 H         3.560574         2.197189         0.065421
 H         2.862086         0.771369        -2.365123
 H         2.354480        -2.140791        -1.277060
 H         3.881197        -1.966531        -0.102256
