19
Iteration:  2252charge 0 multiplicity 1
 C         0.111986         0.790983        -0.281739
 C         1.370993         0.027554         0.163803
 C         1.788798        -1.273471         1.002142
 C         2.760038        -0.308135         1.888577
 C         2.676941         0.623112         0.703057
 O         2.976576         1.939072         0.744080
 C         2.703125        -0.147340        -0.567863
 O         3.277316         0.576590        -1.565479
 C         2.786336        -1.628981        -0.270375
 H         0.456398         1.386779        -1.131354
 H        -0.704453         0.102772        -0.568215
 H        -0.366525         1.383492         0.568482
 H         1.168134        -2.117390         1.479545
 H         2.201681         0.083585         2.683755
 H         3.682772        -0.721771         2.168609
 H         3.581292         2.160896        -0.058417
 H         3.044231         0.201486        -2.365174
 H         2.103537        -2.154900        -1.066117
 H         3.716411        -2.264373        -0.124323
