19
Iteration:   892
 C         0.111955         0.669259        -0.325063
 C         1.419573        -0.053571        -0.064622
 C         1.855073        -1.430613         0.661175
 C         2.437174        -0.527330         1.869542
 C         2.639484         0.553983         0.833837
 O         2.860743         1.833158         1.267656
 C         2.876869        -0.016010        -0.579993
 O         3.329019         0.948653        -1.464075
 C         2.999621        -1.496351        -0.517215
 H        -0.728967         0.030692        -0.071232
 H         0.121506         1.603540         0.168451
 H        -0.024599         0.909965        -1.419336
 H         1.347943        -2.396801         0.685878
 H         1.662722        -0.197494         2.504619
 H         3.234989        -0.923671         2.391455
 H         3.381936         2.258149         0.478862
 H         2.603047         1.129654        -2.228212
 H         2.659412        -1.961497        -1.438736
 H         3.956947        -2.036649        -0.349979
