19
Iteration:  2642charge 0 multiplicity 1
 C         0.120411         0.690972        -0.325403
 C         1.428702         0.159477         0.152095
 C         1.782458        -1.149059         0.992991
 C         2.793053        -0.240622         1.901578
 C         2.723831         0.642082         0.734614
 O         3.122636         1.968957         0.737740
 C         2.746396        -0.244397        -0.562088
 O         3.117578         0.501826        -1.700576
 C         2.680692        -1.704364        -0.081454
 H         0.023544         0.650138        -1.417926
 H        -0.856027         0.331004         0.037696
 H         0.054037         1.706614         0.022492
 H         0.989339        -1.713731         1.535411
 H         2.457506        -0.075639         2.898686
 H         3.798654        -0.725930         2.173617
 H         3.512292         2.161030        -0.207348
 H         2.616633         0.168372        -2.549500
 H         2.039888        -2.174672        -0.768919
 H         3.543315        -2.392723         0.025555
