19
Iteration:  3941
 C         0.112557         0.765739        -0.179998
 C         1.429340         0.064499         0.124556
 C         1.798840        -1.219640         0.952108
 C         2.608827        -0.338985         1.960463
 C         2.763484         0.620349         0.691932
 O         3.023302         2.039370         0.697088
 C         2.706159        -0.220662        -0.565006
 O         3.277221         0.482252        -1.653693
 C         2.762965        -1.641479        -0.239674
 H         0.401757         1.793275        -0.340630
 H        -0.449864         0.432466        -1.046471
 H        -0.579381         0.854314         0.625684
 H         0.946929        -1.834215         1.328805
 H         1.925249         0.143045         2.689954
 H         3.431655        -0.955251         2.420472
 H         3.939417         2.122485         0.448093
 H         2.676562         0.235710        -2.424687
 H         2.282287        -2.119035        -1.034039
 H         3.759860        -2.064525        -0.206618
