19
Iteration:   940charge 0 multiplicity 1
 C         0.077846         0.736915        -0.414680
 C         1.365063         0.057554         0.074071
 C         1.863218        -1.502116         0.583903
 C         2.660091        -0.699408         1.799489
 C         2.607348         0.604444         0.883478
 O         2.785798         1.927106         1.199112
 C         2.796538         0.073528        -0.488958
 O         3.386706         0.819348        -1.430042
 C         2.922252        -1.462035        -0.475050
 H        -0.618825        -0.155295        -0.577588
 H        -0.417978         1.472141         0.315718
 H         0.040375         1.254318        -1.363445
 H         1.185729        -2.358002         0.671215
 H         1.963016        -0.572012         2.739068
 H         3.699108        -0.999131         2.121108
 H         3.333400         2.301240         0.562295
 H         3.202667         0.597843        -2.302242
 H         2.627420        -1.965144        -1.513703
 H         4.038709        -1.903798        -0.390850
