19
Iteration:   290
 C         0.126066         0.591599        -0.574837
 C         1.338595        -0.013017         0.061063
 C         1.926121        -1.487661         0.400111
 C         2.482137        -0.847367         1.800305
 C         2.400913         0.506957         1.027753
 O         2.888245         1.717547         1.451417
 C         2.740932         0.122761        -0.543487
 O         3.406995         1.178332        -1.272626
 C         3.108516        -1.270307        -0.678432
 H        -0.712312        -0.082080        -0.536336
 H        -0.218615         1.456597        -0.009223
 H         0.317497         0.975777        -1.676409
 H         1.212438        -2.482885         0.473264
 H         1.643510        -0.815638         2.612631
 H         3.574292        -0.998600         2.140693
 H         3.202972         1.988222         0.615987
 H         3.111284         0.929717        -2.262674
 H         2.878877        -1.706902        -1.694245
 H         4.110156        -1.510215        -0.307863
