19
Iteration:  3082
 C         0.020701         0.614447        -0.345634
 C         1.359648         0.129295         0.270764
 C         1.810825        -1.282728         0.949384
 C         2.686941        -0.387696         1.900754
 C         2.662145         0.681712         0.799738
 O         3.232445         2.019138         0.702383
 C         2.673960        -0.190205        -0.556486
 O         3.302435         0.632279        -1.562963
 C         2.680552        -1.641519        -0.290339
 H         0.044285         0.739397        -1.508574
 H        -0.873864        -0.059382        -0.016230
 H        -0.157299         1.655590         0.016445
 H         1.105109        -2.111109         1.398053
 H         2.052117        -0.086362         2.715320
 H         3.625537        -0.735297         2.406716
 H         3.385363         2.292507        -0.148982
 H         2.955544         0.475219        -2.557706
 H         2.285137        -2.234276        -1.164253
 H         3.617187        -2.119052        -0.011425
