19
Iteration:  1651
 C         0.076304         0.690846        -0.375960
 C         1.344265         0.057327         0.125065
 C         1.863067        -1.320998         0.796845
 C         2.683920        -0.434752         1.912387
 C         2.639916         0.574876         0.800170
 O         2.982982         1.938823         1.033398
 C         2.761895        -0.140509        -0.587497
 O         3.293336         0.749160        -1.509536
 C         2.801510        -1.580208        -0.449134
 H        -0.164546         1.676895         0.068688
 H         0.173708         0.673154        -1.542733
 H        -0.751344         0.025527        -0.304163
 H         1.245278        -2.180483         1.241418
 H         1.840179        -0.171914         2.751540
 H         3.765502        -0.687959         2.270410
 H         3.612757         2.202605         0.430862
 H         2.991778         0.634827        -2.348379
 H         2.303361        -2.073251        -1.243730
 H         3.836617        -1.948363        -0.263754
