19
Iteration:  4395
 C         0.140050         0.860881        -0.245897
 C         1.398838         0.138230         0.131327
 C         1.810243        -1.198595         1.157090
 C         2.719650        -0.188943         1.930343
 C         2.770657         0.678573         0.762612
 O         3.203185         1.989632         0.634364
 C         2.699281        -0.235363        -0.581596
 O         3.089216         0.216937        -1.834832
 C         2.641106        -1.684644        -0.154969
 H        -0.724103         0.393936         0.318002
 H         0.162656         1.886462         0.148618
 H        -0.014852         0.861375        -1.368248
 H         1.157422        -1.946306         1.580656
 H         2.036769         0.336530         2.711701
 H         3.694565        -0.657759         2.299092
 H         2.476389         2.458907         0.195899
 H         3.977348         0.603808        -1.818445
 H         2.128165        -2.222898        -0.908593
 H         3.596986        -2.160091         0.139825
