19
Iteration:  2229
 C         0.087499         0.757559        -0.319783
 C         1.351378         0.127565         0.171522
 C         1.905849        -1.321297         0.971157
 C         2.757739        -0.410501         1.918255
 C         2.572184         0.686224         0.777213
 O         3.043881         2.025620         0.756152
 C         2.612714        -0.143126        -0.572900
 O         3.324495         0.540451        -1.587169
 C         2.754016        -1.677367        -0.254801
 H         0.407243         0.955504        -1.363644
 H        -0.780668         0.121386        -0.249940
 H        -0.244079         1.662317         0.292419
 H         1.077132        -1.985329         1.287807
 H         2.211011        -0.151614         2.809653
 H         3.765447        -0.700403         2.086646
 H         3.637734         2.077644         0.006294
 H         2.791762         0.373752        -2.479727
 H         2.249090        -2.321714        -1.078092
 H         3.820446        -2.000572        -0.204259
