19
Iteration:  2159
 C         0.003905         0.615212        -0.271605
 C         1.379180         0.061955         0.090416
 C         1.871219        -1.246089         0.895774
 C         2.580590        -0.328899         1.913402
 C         2.652472         0.664504         0.755969
 O         3.205826         1.905417         0.910052
 C         2.731569        -0.093601        -0.542602
 O         3.221901         0.545820        -1.697509
 C         2.834610        -1.521108        -0.258423
 H        -0.390447        -0.033573        -1.080304
 H        -0.650329         0.805343         0.632234
 H         0.081260         1.619457        -0.613923
 H         1.076021        -1.877271         1.273404
 H         1.735083         0.152682         2.591158
 H         3.576456        -0.638631         2.471164
 H         3.539120         2.195942         0.093648
 H         3.012073         0.209163        -2.657880
 H         2.195698        -2.013728        -0.958536
 H         3.673124        -2.149445        -0.051512
