19
Iteration:  2650
 C         0.089969         0.740488        -0.327829
 C         1.457745         0.077268         0.158261
 C         1.784750        -1.087536         1.050393
 C         2.867502        -0.320618         1.924972
 C         2.705382         0.718571         0.769501
 O         3.096668         1.967346         0.678079
 C         2.691216        -0.225131        -0.537831
 O         3.153584         0.511523        -1.647776
 C         2.669705        -1.759846        -0.173075
 H        -0.013776         0.652751        -1.426856
 H        -0.658570         0.063277         0.077459
 H        -0.000854         1.858753        -0.091251
 H         0.815466        -1.613196         1.169096
 H         2.337108         0.157387         2.797074
 H         3.889087        -0.742742         2.109097
 H         3.532892         2.107184        -0.253609
 H         2.636130         0.106277        -2.456059
 H         2.024356        -2.344866        -0.934427
 H         3.568492        -2.308916         0.247797
