19
Iteration:  3659charge 0 multiplicity 1
 C         0.097519         0.745350        -0.221608
 C         1.437714         0.058694         0.060251
 C         1.895159        -1.257036         0.915653
 C         2.587853        -0.336984         1.929515
 C         2.665408         0.627959         0.838493
 O         3.042343         1.951472         0.832214
 C         2.708396        -0.120167        -0.623339
 O         3.395541         0.577102        -1.587090
 C         2.668392        -1.676809        -0.341258
 H        -0.302100         1.282600         0.577912
 H         0.111563         1.397579        -1.029265
 H        -0.579842        -0.086564        -0.491108
 H         1.018044        -1.926718         1.318803
 H         1.799681        -0.065250         2.690415
 H         3.606206        -0.758864         2.133110
 H         3.341166         2.255173        -0.023678
 H         2.868595         0.666525        -2.358535
 H         2.107192        -2.228034        -1.062298
 H         3.634140        -2.171822        -0.272465
