19
Iteration:  1849
 C         0.028380         0.761252        -0.372375
 C         1.412294         0.107361         0.143537
 C         1.853049        -1.283171         0.809926
 C         2.671631        -0.499877         1.899093
 C         2.590259         0.596394         0.868093
 O         2.954939         1.975958         0.972050
 C         2.812252        -0.103113        -0.539416
 O         3.318035         0.566597        -1.691015
 C         2.831240        -1.539273        -0.323887
 H        -0.457530         0.337360        -1.303175
 H        -0.650380         0.423238         0.549254
 H         0.047752         1.812956        -0.432411
 H         1.182893        -1.957710         1.248820
 H         2.172810        -0.293530         2.855909
 H         3.640776        -0.884050         1.989662
 H         3.575857         2.118345         0.314831
 H         2.579955         0.636106        -2.224371
 H         2.539802        -2.186285        -1.185688
 H         3.938049        -1.846665        -0.033271
