19
Iteration:  1088charge 0 multiplicity 1
 C         0.109928         0.674697        -0.411089
 C         1.417483         0.072628         0.141635
 C         1.778760        -1.379698         0.647820
 C         2.614622        -0.668032         1.884852
 C         2.658715         0.566593         0.928301
 O         2.802284         1.913896         1.107376
 C         2.868075         0.013805        -0.486833
 O         3.316815         0.894614        -1.495129
 C         2.929691        -1.492139        -0.568635
 H         0.126522         0.916828        -1.465914
 H        -0.654399        -0.074680        -0.397738
 H        -0.202798         1.614850         0.134925
 H         1.047201        -2.222131         0.855745
 H         1.930891        -0.639362         2.749221
 H         3.547949        -1.264912         2.328490
 H         3.643506         2.177013         0.575142
 H         3.125450         0.335818        -2.384924
 H         2.487082        -1.921721        -1.451018
 H         3.838025        -1.984009        -0.264034
