19
Iteration:  3752
 C         0.068545         0.712655        -0.257646
 C         1.491656         0.107415         0.077143
 C         1.810264        -1.203468         0.934590
 C         2.616877        -0.412366         1.923655
 C         2.692323         0.646928         0.771556
 O         3.051205         2.010567         0.953096
 C         2.795473        -0.138115        -0.559237
 O         3.291936         0.494945        -1.766491
 C         2.719314        -1.614595        -0.234147
 H        -0.656724        -0.104887        -0.032241
 H        -0.131786         1.664317         0.345208
 H         0.115550         0.887511        -1.309521
 H         0.943881        -1.739370         1.224768
 H         1.983362        -0.012405         2.691942
 H         3.632845        -0.807305         2.010791
 H         3.384525         2.145604         0.086144
 H         2.614431         0.314096        -2.479156
 H         2.029657        -2.014083        -1.096611
 H         3.595924        -2.287343        -0.199778
