19
Iteration:   298
 C         0.114291         0.583945        -0.590516
 C         1.344992         0.029369         0.077513
 C         1.947636        -1.414418         0.386449
 C         2.485655        -0.836576         1.766119
 C         2.403164         0.446987         1.043195
 O         2.879277         1.711081         1.429156
 C         2.777413         0.148807        -0.492538
 O         3.392881         1.158846        -1.301129
 C         3.091056        -1.269447        -0.624329
 H        -0.597113        -0.201003        -0.774598
 H        -0.243410         1.288763         0.157944
 H         0.168701         1.074914        -1.608792
 H         1.326665        -2.244624         0.242802
 H         1.801850        -0.940490         2.646113
 H         3.476280        -1.274804         2.122131
 H         3.096361         2.146319         0.643433
 H         3.049647         0.905382        -2.275948
 H         2.839122        -1.747221        -1.632946
 H         4.080672        -1.862515        -0.233366
