19
Iteration:  4925
 C         0.170364         0.805261        -0.228971
 C         1.369818         0.145468         0.288641
 C         1.834567        -0.975833         1.326846
 C         2.756044         0.035534         1.922801
 C         2.783358         0.727341         0.601115
 O         3.378147         2.024262         0.381987
 C         2.539227        -0.339278        -0.610834
 O         2.946353         0.043646        -1.846181
 C         2.597580        -1.719822         0.069148
 H        -0.546048         0.053205         0.026001
 H        -0.064098         1.787815         0.338723
 H         0.207115         0.977204        -1.336322
 H         1.320831        -1.676433         1.966249
 H         2.238025         0.673328         2.723149
 H         3.773915        -0.417815         2.296993
 H         4.186084         1.992972        -0.211445
 H         2.983914        -0.781321        -2.408208
 H         1.874933        -2.370458        -0.512606
 H         3.542765        -2.160023         0.195193
