19
Iteration:  4414charge 0 multiplicity 1
 C         0.245149         0.797657        -0.205355
 C         1.392750         0.138381         0.276067
 C         1.812952        -1.103134         1.044746
 C         2.696249        -0.266985         1.978315
 C         2.745698         0.683046         0.715967
 O         3.131658         1.972276         0.524943
 C         2.753512        -0.217198        -0.561905
 O         3.110823         0.175313        -1.826169
 C         2.630052        -1.628813        -0.158281
 H        -0.712655         0.198967        -0.019822
 H         0.056813         1.742421         0.248990
 H         0.450996         1.178906        -1.240702
 H         1.065788        -1.763402         1.535191
 H         2.148441         0.335216         2.725799
 H         3.575810        -0.571174         2.370036
 H         2.527708         2.643374         0.829338
 H         3.751477         0.849737        -1.833893
 H         1.851529        -2.045485        -0.838783
 H         3.417506        -2.469410         0.041607
