19
Iteration:   807charge 0 multiplicity 1
 C         0.100445         0.509789        -0.405906
 C         1.398673         0.047473         0.054978
 C         1.888629        -1.428761         0.673817
 C         2.570175        -0.553073         1.792162
 C         2.519595         0.593036         0.895132
 O         2.886996         1.853018         1.281949
 C         2.786855         0.027508        -0.551752
 O         3.475172         0.963147        -1.364945
 C         2.846619        -1.500157        -0.644355
 H        -0.409557         1.164674         0.368859
 H         0.176320         1.036749        -1.390090
 H        -0.633544        -0.274399        -0.649796
 H         1.154335        -2.154956         0.881663
 H         1.763082        -0.385590         2.573102
 H         3.648332        -0.911445         2.007365
 H         3.248851         2.247515         0.418125
 H         3.154375         1.038113        -2.214863
 H         2.260881        -1.737613        -1.604736
 H         3.841090        -2.110127        -0.710586
