19
Iteration:  2091
 C         0.113773         0.688015        -0.290298
 C         1.394950        -0.039598         0.231115
 C         1.818862        -1.286650         0.922881
 C         2.720928        -0.353360         1.884955
 C         2.651640         0.645352         0.766804
 O         2.987152         1.990063         0.806202
 C         2.779136        -0.121111        -0.556496
 O         3.333978         0.604456        -1.589241
 C         2.708729        -1.637839        -0.327846
 H        -0.874067         0.213694        -0.173294
 H         0.048083         1.787681         0.157106
 H         0.167587         0.931076        -1.333633
 H         1.019593        -1.981236         1.365330
 H         1.920738         0.021500         2.610173
 H         3.844565        -0.661099         2.289262
 H         3.412476         2.099829        -0.148922
 H         2.703436         0.822865        -2.197606
 H         2.142289        -1.840844        -1.192040
 H         3.553032        -2.333504        -0.321212
