19
Iteration:  3873
 C         0.017557         0.678759        -0.159001
 C         1.390949         0.161707         0.129044
 C         1.792880        -1.201248         0.942110
 C         2.614959        -0.327144         1.852411
 C         2.619670         0.708240         0.687004
 O         3.197443         1.932426         0.832326
 C         2.691075        -0.169886        -0.563504
 O         3.349247         0.503488        -1.629268
 C         2.738966        -1.642472        -0.295519
 H         0.081980         0.752493        -1.246677
 H        -0.754380        -0.114150        -0.000972
 H        -0.254770         1.623527         0.166503
 H         0.970060        -1.797907         1.387667
 H         1.987632        -0.033119         2.738908
 H         3.699577        -0.496117         2.238680
 H         3.598650         2.269319        -0.045654
 H         3.153030         0.164258        -2.531441
 H         2.098609        -2.336288        -0.890472
 H         3.613457        -2.185933        -0.081070
