19
Iteration:  1918
 C         0.106714         0.642426        -0.335643
 C         1.409804         0.098487         0.108965
 C         1.768406        -1.282155         0.840682
 C         2.646173        -0.470434         1.887773
 C         2.641600         0.641469         0.836164
 O         3.094552         1.964650         0.876496
 C         2.759839        -0.091410        -0.510502
 O         3.225318         0.679701        -1.572979
 C         2.818128        -1.560999        -0.334567
 H         0.080144         1.474732        -1.084444
 H        -0.536961        -0.144994        -0.770003
 H        -0.427511         1.051691         0.550552
 H         1.112389        -2.149745         1.084020
 H         2.053011        -0.073179         2.814594
 H         3.547944        -0.981912         2.275097
 H         3.406895         2.107060        -0.096791
 H         2.924297         0.285679        -2.395521
 H         2.480975        -2.291455        -1.156242
 H         3.761626        -1.992894         0.107288
