19
Iteration:   522
 C         0.145513         0.599607        -0.524289
 C         1.438878         0.054608         0.022609
 C         1.917839        -1.439455         0.541267
 C         2.575319        -0.751167         1.866991
 C         2.567527         0.489478         0.974739
 O         2.700413         1.830855         1.343505
 C         2.913413         0.119896        -0.522139
 O         3.366517         1.082440        -1.409037
 C         2.894406        -1.446351        -0.649618
 H        -0.499258         1.177157         0.189649
 H         0.337172         1.367176        -1.275861
 H        -0.409265        -0.256436        -0.949035
 H         1.321862        -2.277990         0.556112
 H         1.754624        -0.688347         2.594255
 H         3.538098        -1.114857         2.381572
 H         3.649358         1.884475         1.611289
 H         2.884005         0.902687        -2.307495
 H         2.355745        -1.682928        -1.655249
 H         3.884096        -2.115211        -0.497989
