19
Iteration:  4109charge 0 multiplicity 1
 C         0.076871         0.730852        -0.234411
 C         1.323364         0.120057         0.142898
 C         1.808697        -1.162179         1.003784
 C         2.648691        -0.272020         1.912663
 C         2.646463         0.619017         0.716827
 O         3.295268         1.914623         0.660610
 C         2.575970        -0.204054        -0.572514
 O         3.222131         0.557394        -1.614342
 C         2.760623        -1.665763        -0.186221
 H        -0.642679        -0.134427        -0.384170
 H        -0.278186         1.543069         0.349639
 H         0.066606         1.156011        -1.291511
 H         1.026040        -1.836635         1.386333
 H         1.848384         0.192378         2.579689
 H         3.566582        -0.666861         2.503359
 H         3.732530         1.924326        -0.199381
 H         3.565809        -0.078419        -2.196999
 H         2.233353        -2.311905        -0.906656
 H         3.842739        -2.013513         0.114156
