19
Iteration:   107
 C         0.048332         0.589911        -0.540544
 C         1.408925         0.058182        -0.101691
 C         1.898164        -1.432515         0.330023
 C         2.633697        -0.850307         1.655338
 C         2.482646         0.408232         0.937320
 O         2.687178         1.656089         1.567124
 C         2.877074         0.154199        -0.531794
 O         3.454727         1.240813        -1.178084
 C         3.017339        -1.344772        -0.614140
 H        -0.054216         0.838750        -1.704339
 H        -0.806968        -0.085746        -0.259482
 H         0.011008         1.552200        -0.002379
 H         1.222088        -2.427767         0.450376
 H         1.830072        -0.935480         2.473060
 H         3.660131        -1.167781         1.857791
 H         3.090689         2.268859         0.996202
 H         2.770865         1.535972        -1.716394
 H         2.927221        -1.744673        -1.679131
 H         4.008786        -1.857831        -0.131699
