19
Iteration:    79charge 0 multiplicity 1
 C         0.143872         0.498431        -0.545321
 C         1.454654         0.073380         0.006365
 C         1.881760        -1.453582         0.321193
 C         2.456455        -0.912650         1.668741
 C         2.535740         0.424609         0.996395
 O         2.726440         1.690044         1.599091
 C         2.846188         0.214788        -0.515627
 O         3.405049         1.285587        -1.228923
 C         3.071149        -1.341263        -0.701446
 H        -0.082692        -0.008190        -1.407826
 H        -0.653343         0.500038         0.208612
 H         0.264178         1.568584        -0.769310
 H         1.282866        -2.247852         0.333692
 H         1.702653        -0.943634         2.389047
 H         3.444660        -1.331744         1.997130
 H         2.896460         2.356950         0.926301
 H         3.013882         1.274624        -2.062078
 H         2.726844        -1.650834        -1.664090
 H         3.947766        -1.847201        -0.509345
