19
Iteration:  4694
 C        -0.046381         0.680286        -0.228985
 C         1.448279         0.180648         0.199971
 C         1.784925        -1.067536         1.204306
 C         2.797603        -0.018508         1.919354
 C         2.766894         0.700171         0.623614
 O         3.417212         1.932135         0.487300
 C         2.680330        -0.292111        -0.563670
 O         3.127884         0.164743        -1.813007
 C         2.459309        -1.691842        -0.026740
 H        -0.705410         0.020212         0.275428
 H        -0.089970         1.680052         0.302119
 H        -0.023298         0.580378        -1.291257
 H         1.146029        -1.644858         1.885844
 H         2.327768         0.596511         2.619075
 H         3.720524        -0.425592         2.231222
 H         2.760571         2.587474         0.114830
 H         3.736031         0.911431        -1.644496
 H         1.644165        -2.130685        -0.732920
 H         3.405992        -2.321271        -0.009829
