19
Iteration:  2109charge 0 multiplicity 1
 C         0.104519         0.674885        -0.319377
 C         1.404651         0.123133         0.104579
 C         1.833133        -1.283866         0.964919
 C         2.738952        -0.375546         1.870008
 C         2.637898         0.662161         0.771025
 O         3.005006         1.947628         0.812962
 C         2.701783        -0.160826        -0.549785
 O         3.328341         0.647482        -1.569154
 C         2.689677        -1.630848        -0.290321
 H        -0.570847        -0.148426        -0.222354
 H        -0.109225         1.552115         0.221888
 H         0.002586         1.063003        -1.392702
 H         1.330205        -2.142877         1.391482
 H         2.294862        -0.136894         2.784673
 H         3.651269        -0.859310         2.026821
 H         3.617560         2.238984         0.031010
 H         2.764177         0.604062        -2.284202
 H         2.028514        -2.330356        -0.864532
 H         3.657046        -2.151527        -0.108970
