19
Iteration:   600charge 0 multiplicity 1
 C         0.145619         0.607391        -0.364660
 C         1.436755        -0.027445         0.026134
 C         1.852617        -1.423915         0.474168
 C         2.435337        -0.642820         1.793178
 C         2.569526         0.482826         0.875422
 O         2.854259         1.824309         1.322236
 C         2.784502         0.076265        -0.583762
 O         3.407258         1.043185        -1.342230
 C         3.018292        -1.454606        -0.582700
 H        -0.607371        -0.228357        -0.360664
 H        -0.132887         1.396537         0.380625
 H         0.088228         1.075786        -1.335038
 H         1.219138        -2.138715         0.692248
 H         1.562079        -0.624287         2.430316
 H         3.282466        -1.148427         2.377310
 H         2.943181         2.389973         0.461004
 H         3.062642         1.124750        -2.174503
 H         2.792543        -2.036009        -1.521882
 H         4.022973        -1.782219        -0.169669
