19
Iteration:  2237
 C         0.116894         0.760669        -0.309762
 C         1.298522         0.075512         0.204113
 C         1.963235        -1.254506         0.930287
 C         2.731648        -0.406507         1.855067
 C         2.623233         0.667203         0.789099
 O         3.022541         2.030158         0.751427
 C         2.609939        -0.208486        -0.559303
 O         3.312602         0.544416        -1.562324
 C         2.709656        -1.649789        -0.271064
 H         0.229258         1.216164        -1.306703
 H        -0.708382         0.110611        -0.496947
 H        -0.034375         1.595008         0.265799
 H         1.365774        -1.978677         1.409968
 H         2.093872        -0.134870         2.806251
 H         3.797240        -0.714957         2.202820
 H         3.673258         2.070988        -0.015454
 H         3.005406         0.374676        -2.493725
 H         2.189688        -2.333670        -0.903052
 H         3.710902        -1.892673        -0.058812
