19
Iteration:  1301charge 0 multiplicity 1
 C         0.119964         0.646592        -0.370529
 C         1.402374         0.068199         0.033719
 C         1.772442        -1.312133         0.698630
 C         2.625989        -0.611028         1.744500
 C         2.584354         0.573911         0.866609
 O         2.925610         1.852192         1.129170
 C         2.778355         0.037776        -0.589379
 O         3.283269         0.812535        -1.547700
 C         2.974771        -1.493204        -0.302506
 H        -0.435995         1.092981         0.509109
 H         0.257558         1.569760        -1.024647
 H        -0.585085        -0.055987        -0.739709
 H         1.030450        -1.972473         1.012570
 H         1.909735        -0.577891         2.644027
 H         3.536716        -1.144972         2.100511
 H         3.719436         2.057903         0.690712
 H         2.667963         0.743032        -2.198543
 H         2.872348        -2.077983        -1.245499
 H         3.909525        -1.871205         0.075355
