19
Iteration:   192charge 0 multiplicity 1
 C         0.055453         0.625305        -0.347191
 C         1.379692         0.013943        -0.093835
 C         1.954623        -1.447123         0.355760
 C         2.502411        -0.803516         1.679877
 C         2.428934         0.489964         0.871153
 O         2.619528         1.686065         1.542508
 C         2.828137         0.165151        -0.580974
 O         3.563962         1.174423        -1.261107
 C         3.113993        -1.356899        -0.619468
 H         0.073862         1.590961         0.161023
 H        -0.146161         0.870913        -1.404272
 H        -0.840253        -0.046510        -0.211821
 H         1.286842        -2.501076         0.480436
 H         1.844874        -1.010565         2.582182
 H         3.497665        -1.132494         2.039192
 H         3.412660         1.933314         0.963693
 H         3.231839         1.162676        -2.259355
 H         2.767959        -1.867687        -1.539418
 H         4.096850        -1.683035        -0.377807
