19
Iteration:   699charge 0 multiplicity 1
 C         0.200192         0.637647        -0.339829
 C         1.455206        -0.003839         0.011426
 C         1.743536        -1.355148         0.548893
 C         2.558824        -0.747547         1.763390
 C         2.576485         0.559041         0.925064
 O         2.745932         1.890454         1.246259
 C         2.866379         0.027001        -0.513127
 O         3.396202         0.986956        -1.385226
 C         2.980958        -1.466915        -0.538111
 H         0.303752         1.076384        -1.382118
 H        -0.481121        -0.284885        -0.509944
 H        -0.265517         1.197822         0.459744
 H         1.207358        -2.211595         0.606424
 H         1.824347        -0.593396         2.578800
 H         3.603225        -1.204690         1.802948
 H         2.929883         2.434460         0.402097
 H         3.017232         0.832277        -2.188727
 H         2.499219        -1.792184        -1.453256
 H         3.834102        -1.970354        -0.268362
