19
Iteration:  1362charge 0 multiplicity 1
 C         0.110513         0.593982        -0.270667
 C         1.424221         0.009259         0.066893
 C         1.713390        -1.360539         0.681353
 C         2.654018        -0.552246         1.857866
 C         2.616461         0.624348         0.803318
 O         2.895530         1.975106         1.100833
 C         2.810980        -0.046430        -0.584618
 O         3.426175         0.864015        -1.511791
 C         2.837367        -1.588271        -0.435557
 H        -0.673141         0.015151         0.218274
 H         0.036746         1.616620         0.078745
 H        -0.014705         0.641004        -1.375685
 H         0.802534        -1.987171         0.927939
 H         1.993007        -0.313078         2.659698
 H         3.577301        -1.067217         2.281487
 H         3.195210         2.327404         0.277951
 H         3.180137         0.736472        -2.416578
 H         2.372176        -2.057872        -1.305907
 H         3.710394        -2.175543        -0.089610
