19
Iteration:  2924
 C         0.048678         0.673302        -0.188482
 C         1.336551         0.100904         0.196394
 C         1.839079        -1.255573         0.983228
 C         2.653003        -0.355466         1.957189
 C         2.716984         0.692474         0.791170
 O         3.160458         2.066983         0.724678
 C         2.681984        -0.196622        -0.621628
 O         3.337571         0.474803        -1.673225
 C         2.671788        -1.596065        -0.334047
 H        -0.147817         1.559885         0.449188
 H         0.037156         1.036460        -1.214497
 H        -0.706228        -0.141847        -0.199566
 H         1.185220        -1.969205         1.485325
 H         2.028147        -0.026265         2.850891
 H         3.573376        -0.788116         2.377214
 H         3.491057         2.144996        -0.276136
 H         2.984799         0.396885        -2.523781
 H         1.962441        -2.220233        -0.976138
 H         3.580853        -2.099181        -0.109868
