19
Iteration:  2361charge 0 multiplicity 1
 C         0.041398         0.639897        -0.301142
 C         1.386906         0.101146         0.180828
 C         1.761990        -1.220128         1.016164
 C         2.714095        -0.342443         1.846743
 C         2.715083         0.652058         0.729197
 O         3.119240         1.986087         0.703774
 C         2.798306        -0.125425        -0.489007
 O         3.235984         0.567830        -1.620120
 C         2.721675        -1.614535        -0.209545
 H        -0.302174         1.525766         0.220800
 H         0.024668         0.757824        -1.373083
 H        -0.706976        -0.134016        -0.167113
 H         0.886015        -1.967026         1.323424
 H         2.356418         0.090147         2.865232
 H         3.737940        -0.881820         2.187293
 H         3.617522         2.112751        -0.201532
 H         2.802653         0.199530        -2.348922
 H         2.031651        -2.089414        -0.974673
 H         3.527500        -2.241990        -0.053764
