19
Iteration:  3224charge 0 multiplicity 1
 C         0.153567         0.849951        -0.233960
 C         1.317846         0.004356         0.160196
 C         1.843362        -1.330761         0.950782
 C         2.700940        -0.381362         1.891545
 C         2.583873         0.571310         0.783561
 O         2.963809         1.981644         0.788564
 C         2.746553        -0.106839        -0.575884
 O         3.355591         0.646635        -1.651462
 C         2.798898        -1.647507        -0.296101
 H        -0.751695         0.489323         0.168814
 H         0.220948         1.865556         0.101231
 H        -0.144148         0.923742        -1.238272
 H         1.078771        -2.105680         1.352078
 H         2.198978        -0.131840         2.775389
 H         3.588196        -0.930515         2.267571
 H         3.275267         2.014842        -0.169608
 H         3.062918         0.119946        -2.503569
 H         2.167463        -2.390088        -0.936703
 H         3.780613        -2.097880        -0.078299
