19
Iteration:  3682charge 0 multiplicity 1
 C         0.054108         0.756726        -0.154963
 C         1.354886         0.017371         0.194774
 C         1.688522        -1.288784         0.871082
 C         2.610836        -0.379596         1.874349
 C         2.681043         0.638750         0.720093
 O         3.082011         1.931723         0.690133
 C         2.783687        -0.102442        -0.558787
 O         3.374367         0.655671        -1.528231
 C         2.823718        -1.636936        -0.271016
 H        -0.566938         0.957040         0.687160
 H         0.276362         1.674827        -0.590336
 H        -0.503003         0.136833        -0.849425
 H         0.831742        -1.992662         1.156601
 H         1.835598        -0.075848         2.587678
 H         3.507477        -0.961694         2.168498
 H         3.532177         2.200286        -0.173202
 H         3.072379         0.284543        -2.457651
 H         2.364656        -2.192619        -1.105604
 H         3.719012        -2.171744        -0.023847
