19
Iteration:  4371charge 0 multiplicity 1
 C         0.109252         0.846176        -0.225618
 C         1.357966         0.112570         0.136163
 C         1.770413        -1.089906         1.058533
 C         2.776050        -0.213889         1.818560
 C         2.687234         0.705373         0.681919
 O         3.238582         1.974295         0.729064
 C         2.670416        -0.297860        -0.622457
 O         3.063718         0.305252        -1.784798
 C         2.725988        -1.733014        -0.008313
 H        -0.680847         0.661290         0.603767
 H         0.225143         1.884133        -0.325567
 H        -0.198076         0.382555        -1.223302
 H         0.914345        -1.739647         1.316823
 H         2.120594         0.146957         2.678657
 H         3.652494        -0.766542         2.058165
 H         3.228586         2.405386        -0.121121
 H         3.993924         0.420153        -1.824346
 H         2.291510        -2.515345        -0.597406
 H         3.769727        -1.998527         0.343469
