19
Iteration:   815
 C         0.019022         0.578481        -0.438655
 C         1.365179         0.067982         0.041050
 C         1.916379        -1.451471         0.690835
 C         2.592779        -0.578155         1.797187
 C         2.535593         0.559597         0.834125
 O         2.900667         1.901152         1.297842
 C         2.795565         0.002664        -0.576237
 O         3.486584         0.964980        -1.323345
 C         2.862120        -1.518848        -0.664734
 H        -0.561173         1.066327         0.279295
 H        -0.024949         1.217620        -1.236558
 H        -0.481747        -0.384310        -0.727403
 H         1.208232        -2.239499         0.980879
 H         1.980580        -0.522677         2.620789
 H         3.547220        -0.827979         2.093260
 H         3.238566         2.262849         0.459067
 H         3.105648         0.925023        -2.132423
 H         2.207696        -1.917471        -1.439356
 H         3.876138        -2.036323        -0.576001
