19
Iteration:   709charge 0 multiplicity 1
 C         0.198224         0.638510        -0.389688
 C         1.478893         0.084995         0.034329
 C         1.846548        -1.439926         0.506484
 C         2.549971        -0.728630         1.776843
 C         2.594289         0.508127         0.923210
 O         2.754161         1.906637         1.257201
 C         2.840569         0.052779        -0.521340
 O         3.332917         0.978664        -1.384066
 C         2.953850        -1.505757        -0.537811
 H         0.262528         1.475455        -1.152463
 H        -0.519427        -0.152551        -0.742709
 H        -0.204991         1.195713         0.465443
 H         1.095223        -2.086842         0.759623
 H         1.848827        -0.668733         2.592356
 H         3.448111        -1.152672         2.329668
 H         2.900246         2.311069         0.320257
 H         2.965850         0.815704        -2.248119
 H         2.769004        -1.983901        -1.488639
 H         3.818640        -1.916322        -0.197272
