19
Iteration:  4344charge 0 multiplicity 1
 C         0.054731         0.736638        -0.252395
 C         1.344362         0.094125         0.185306
 C         1.779071        -1.113171         1.048746
 C         2.712751        -0.228932         1.993830
 C         2.736892         0.679271         0.754046
 O         3.269717         1.962566         0.625984
 C         2.696300        -0.162284        -0.562859
 O         3.085365         0.334074        -1.814222
 C         2.695877        -1.622198        -0.114930
 H        -0.427713         1.111575         0.608282
 H         0.165214         1.575076        -1.041840
 H        -0.526574        -0.000777        -0.752412
 H         0.966118        -1.807123         1.292989
 H         2.121733         0.098881         2.812085
 H         3.577291        -0.756042         2.477373
 H         3.906377         2.080985        -0.072321
 H         3.984206         0.047711        -1.985109
 H         1.997490        -2.196064        -0.831759
 H         3.636948        -2.188602        -0.032491
