19
Iteration:  2135charge 0 multiplicity 1
 C         0.009820         0.639555        -0.271335
 C         1.337322         0.080062         0.119411
 C         1.773163        -1.237012         0.886367
 C         2.707601        -0.410600         1.880139
 C         2.638565         0.686392         0.771321
 O         3.142636         1.968370         0.861281
 C         2.670608        -0.100081        -0.525343
 O         3.282852         0.600874        -1.655908
 C         2.820312        -1.605929        -0.278304
 H        -0.507532        -0.204449        -0.690407
 H        -0.531623         1.393447         0.370663
 H         0.196391         1.243440        -1.102706
 H         0.953979        -1.892870         1.352753
 H         2.141507        -0.149727         2.823008
 H         3.729015        -0.986735         2.078608
 H         3.756803         2.258057         0.064030
 H         2.981594         0.168501        -2.404884
 H         2.550814        -2.403875        -0.887944
 H         3.758412        -1.842359         0.218219
