19
Iteration:  4482
 C         0.009272         0.748409        -0.253484
 C         1.350308         0.183540         0.208747
 C         1.827397        -1.126190         1.088787
 C         2.687010        -0.203365         1.945659
 C         2.720232         0.733369         0.704101
 O         3.428184         1.900918         0.437786
 C         2.584480        -0.233440        -0.536828
 O         3.139541         0.229972        -1.751548
 C         2.677919        -1.626547        -0.102668
 H        -0.320737         0.410478        -1.301619
 H        -0.864905         0.494631         0.322341
 H        -0.033016         1.857681        -0.069041
 H         1.185681        -1.908385         1.452950
 H         2.002729         0.229633         2.736293
 H         3.492729        -0.674704         2.412436
 H         2.915793         2.619652         0.904907
 H         3.851136         0.954533        -1.512039
 H         2.071682        -2.295334        -0.698414
 H         3.671324        -2.191728         0.188843
