19
Iteration:  4883
 C         0.174024         0.770964        -0.141364
 C         1.452321         0.203281         0.223305
 C         1.694583        -0.997635         1.295658
 C         2.817189        -0.126293         1.910379
 C         2.759922         0.709140         0.588655
 O         3.333056         2.022072         0.270429
 C         2.609486        -0.316233        -0.525092
 O         2.942348         0.087678        -1.827302
 C         2.595631        -1.667128         0.109545
 H        -0.504338         0.905917         0.663200
 H         0.214490         1.762340        -0.705284
 H        -0.402926         0.193541        -0.860019
 H         0.823351        -1.517673         1.793830
 H         2.393664         0.486773         2.675706
 H         3.725588        -0.675438         2.254157
 H         3.970039         1.842860        -0.413929
 H         3.989093         0.064659        -1.971403
 H         1.879437        -2.381932        -0.411803
 H         3.586377        -2.044439         0.424096
