19
Iteration:  1791charge 0 multiplicity 1
 C         0.045734         0.721752        -0.271592
 C         1.350088         0.058157         0.073169
 C         1.982044        -1.331432         0.823403
 C         2.627884        -0.454323         1.939203
 C         2.557169         0.608516         0.818918
 O         2.945127         1.919747         0.902846
 C         2.799638        -0.095884        -0.593369
 O         3.343733         0.723975        -1.565820
 C         2.805682        -1.590548        -0.367746
 H        -0.831337         0.001849        -0.279488
 H        -0.260895         1.595709         0.420993
 H         0.068141         1.237268        -1.321736
 H         1.166923        -2.034718         1.263393
 H         2.036449        -0.023871         2.649674
 H         3.533049        -0.789585         2.384040
 H         3.911573         1.964403         0.471616
 H         3.127642         0.261181        -2.489587
 H         2.135845        -2.001429        -1.135949
 H         3.798265        -2.187206        -0.321626
