19
Iteration:  4347charge 0 multiplicity 1
 C         0.071874         0.739713        -0.261602
 C         1.336591         0.107547         0.174379
 C         1.761219        -1.124999         1.040392
 C         2.722284        -0.230335         2.003791
 C         2.719211         0.665584         0.727351
 O         3.265588         1.950476         0.640353
 C         2.718317        -0.150149        -0.577878
 O         3.068117         0.338151        -1.821150
 C         2.698773        -1.623889        -0.089205
 H        -0.402935         1.078696         0.690337
 H         0.189698         1.622921        -0.904310
 H        -0.533830        -0.020375        -0.799678
 H         0.938742        -1.813059         1.442265
 H         2.144999         0.162069         2.824112
 H         3.591053        -0.735785         2.296777
 H         3.899315         2.115648        -0.118925
 H         4.093737         0.021597        -1.886846
 H         2.031925        -2.188301        -0.816358
 H         3.688989        -2.150866         0.040629
