19
Iteration:  1801charge 0 multiplicity 1
 C         0.063112         0.742323        -0.273004
 C         1.453249         0.093571         0.043022
 C         1.899995        -1.362148         0.861498
 C         2.654929        -0.374268         1.948879
 C         2.632761         0.550675         0.794676
 O         2.906186         1.929432         0.882487
 C         2.739480        -0.073526        -0.584209
 O         3.323544         0.747422        -1.525635
 C         2.796324        -1.671075        -0.395934
 H        -0.617428        -0.169050        -0.418014
 H        -0.400617         1.370823         0.520888
 H         0.202483         1.334485        -1.303806
 H         1.240732        -2.293174         1.177765
 H         1.983920         0.042041         2.675273
 H         3.570789        -0.709068         2.447198
 H         3.885002         1.970572         0.570645
 H         3.056520         0.436363        -2.454005
 H         2.164259        -2.008249        -1.219907
 H         3.685239        -2.349732        -0.346982
