19
Iteration:  1299
 C         0.111673         0.650100        -0.377557
 C         1.393616         0.063033         0.017791
 C         1.781458        -1.296078         0.700998
 C         2.643997        -0.624580         1.763641
 C         2.594743         0.569433         0.868566
 O         2.916141         1.845823         1.130626
 C         2.791862         0.028620        -0.584285
 O         3.283005         0.820080        -1.544058
 C         2.955729        -1.496144        -0.301719
 H        -0.414492         1.125592         0.513671
 H         0.238135         1.549397        -1.057608
 H        -0.573249        -0.066492        -0.718330
 H         0.995547        -1.946118         1.006272
 H         1.950177        -0.507508         2.582970
 H         3.485343        -1.105743         2.127042
 H         3.727255         2.094466         0.668285
 H         2.613207         0.748609        -2.221727
 H         2.882560        -2.054310        -1.303993
 H         3.955930        -1.905987         0.070227
