19
Iteration:  3138
 C        -0.019172         0.650436        -0.319971
 C         1.351275         0.120579         0.205036
 C         1.845881        -1.245307         0.901541
 C         2.652723        -0.315240         1.839544
 C         2.717857         0.693559         0.781458
 O         3.141216         1.985105         0.924363
 C         2.664438        -0.148234        -0.583226
 O         3.284844         0.505898        -1.707090
 C         2.800765        -1.649912        -0.260019
 H        -0.212001         0.056837        -1.232343
 H        -0.759366         0.656872         0.542488
 H         0.304952         1.671111        -0.531655
 H         1.011691        -1.985104         1.304241
 H         2.031144         0.039702         2.670619
 H         3.585623        -0.709900         2.281140
 H         3.817032         2.048141         0.259925
 H         2.611415         0.688687        -2.392464
 H         2.197506        -2.141190        -1.002581
 H         3.760506        -2.137196        -0.053717
