19
Iteration:   413charge 0 multiplicity 1
 C         0.033807         0.655899        -0.374212
 C         1.445342        -0.046849        -0.145078
 C         1.910188        -1.449047         0.482683
 C         2.515822        -0.729891         1.778799
 C         2.554120         0.468063         0.863417
 O         2.681513         1.722909         1.356108
 C         2.883542         0.075266        -0.571292
 O         3.452329         1.192570        -1.234940
 C         3.024912        -1.433289        -0.573862
 H         0.080507         1.486755        -1.121619
 H        -0.832025        -0.022067        -0.570585
 H        -0.182244         1.202893         0.516740
 H         1.263415        -2.294721         0.454465
 H         1.753951        -0.649465         2.570581
 H         3.521095        -1.035205         2.247676
 H         3.235672         2.120201         0.595256
 H         3.360520         1.203607        -2.214094
 H         2.599218        -1.866050        -1.510641
 H         3.969003        -1.954564        -0.315729
