19
Iteration:  4018
 C         0.194115         0.725357        -0.321042
 C         1.426388         0.101729         0.159927
 C         1.781902        -1.172180         0.997292
 C         2.719003        -0.348143         1.932157
 C         2.628105         0.678855         0.796749
 O         3.130911         2.019953         0.893333
 C         2.730906        -0.152700        -0.584960
 O         3.243392         0.362552        -1.800547
 C         2.660532        -1.582739        -0.242044
 H        -0.353461         1.267663         0.424671
 H         0.236167         1.331164        -1.201346
 H        -0.498029        -0.069644        -0.604282
 H         1.103912        -1.913053         1.472855
 H         2.264407         0.067837         2.868857
 H         3.755179        -0.728841         2.249113
 H         3.258181         2.191012        -0.076909
 H         2.404615         0.356705        -2.352659
 H         1.967045        -2.073900        -0.934905
 H         3.516521        -2.238240        -0.093722
