19
Iteration:  1569
 C         0.056019         0.655791        -0.246377
 C         1.296474        -0.069172         0.058625
 C         1.876231        -1.327517         0.768187
 C         2.554589        -0.456023         1.830793
 C         2.554804         0.581361         0.779135
 O         3.003710         1.893662         1.059732
 C         2.716334         0.023246        -0.557579
 O         3.406283         0.772489        -1.586958
 C         2.903126        -1.539444        -0.368898
 H         0.365839         1.220275        -1.164559
 H        -0.850481         0.186475        -0.521911
 H        -0.200337         1.415195         0.596875
 H         1.304378        -2.169421         1.033214
 H         1.957090        -0.138787         2.626399
 H         3.559238        -0.841508         2.195196
 H         3.755750         2.035750         0.539373
 H         3.057461         0.556242        -2.439530
 H         2.335553        -1.996552        -1.294779
 H         3.988617        -2.028168        -0.199798
