19
Iteration:  3160
 C         0.125784         0.730583        -0.283731
 C         1.427642         0.038360         0.069066
 C         1.802053        -1.208180         0.896334
 C         2.636945        -0.375031         1.883295
 C         2.695716         0.670379         0.843735
 O         3.047695         1.947343         0.937727
 C         2.741047        -0.073345        -0.547475
 O         3.221637         0.444827        -1.787024
 C         2.787653        -1.561772        -0.237243
 H        -0.405368        -0.146061        -0.671518
 H        -0.279317         1.028399         0.727559
 H         0.132414         1.550247        -1.008395
 H         1.005573        -2.021078         1.190381
 H         2.120060         0.030588         2.741386
 H         3.537871        -0.818697         2.334643
 H         3.738390         2.240213         0.222000
 H         2.430817         0.554188        -2.366579
 H         2.338620        -2.142896        -1.019013
 H         3.797430        -1.889803         0.041454
