19
Iteration:  4027charge 0 multiplicity 1
 C         0.094098         0.644136        -0.295447
 C         1.417531         0.124626         0.127964
 C         1.791005        -1.142733         0.974546
 C         2.703699        -0.259966         1.926197
 C         2.715888         0.658969         0.806751
 O         3.146038         2.018619         0.904771
 C         2.764916        -0.213159        -0.563052
 O         3.254550         0.393808        -1.802146
 C         2.620531        -1.650301        -0.227511
 H        -0.376926         1.226368         0.455878
 H         0.525203         1.461917        -0.981244
 H        -0.433930        -0.029140        -0.877917
 H         1.085188        -1.877213         1.419973
 H         2.220034         0.066568         2.858115
 H         3.708795        -0.742934         2.087676
 H         3.186410         2.340208        -0.036524
 H         2.437252         0.565231        -2.363343
 H         1.772015        -2.009981        -0.919458
 H         3.509851        -2.229428        -0.183152
