19
Iteration:   651charge 0 multiplicity 1
 C        -0.022184         0.532033        -0.348507
 C         1.355253         0.049157         0.039417
 C         1.925636        -1.406919         0.561828
 C         2.517028        -0.669051         1.755207
 C         2.480160         0.546168         0.836796
 O         2.841743         1.860876         1.285179
 C         2.748497         0.057872        -0.618411
 O         3.551163         0.939333        -1.293884
 C         2.996334        -1.400284        -0.605829
 H        -0.247589         0.206854        -1.345594
 H        -0.816671         0.399637         0.344263
 H         0.142690         1.682653        -0.316073
 H         1.126378        -2.292483         0.734965
 H         1.878134        -0.479819         2.602920
 H         3.485184        -1.055078         1.947488
 H         3.666888         2.119936         0.960183
 H         3.221322         1.048750        -2.241866
 H         2.551816        -1.903388        -1.452223
 H         4.022034        -1.717712        -0.427613
