19
Iteration:  2463charge 0 multiplicity 1
 C         0.067980         0.703630        -0.183331
 C         1.368524         0.057877         0.135181
 C         1.827582        -1.229969         0.925618
 C         2.574965        -0.245728         1.901293
 C         2.770004         0.650074         0.673389
 O         3.153454         2.010627         0.810233
 C         2.752682        -0.141450        -0.555861
 O         3.213602         0.358844        -1.745988
 C         2.759557        -1.575707        -0.178489
 H        -0.706952         0.259504         0.409799
 H         0.031442         1.692381         0.209472
 H        -0.274765         0.732058        -1.236834
 H         1.217820        -2.052079         1.289801
 H         1.847078         0.263630         2.490979
 H         3.548563        -0.594146         2.629602
 H         3.864792         2.212117         0.109483
 H         2.475731         0.314486        -2.508376
 H         2.209158        -2.191750        -0.848169
 H         3.790947        -1.863822        -0.099406
