19
Iteration:  4944
 C         0.090955         0.818396        -0.225466
 C         1.364263         0.200697         0.282416
 C         1.804902        -1.000208         1.252603
 C         2.885501        -0.050806         1.883194
 C         2.793985         0.756071         0.584648
 O         3.312860         1.995351         0.401155
 C         2.628389        -0.307337        -0.538582
 O         2.993258        -0.040183        -1.849409
 C         2.586343        -1.645858         0.123298
 H        -0.590863         0.050365        -0.713816
 H        -0.353094         1.390785         0.609242
 H         0.512669         1.520093        -0.979652
 H         1.045157        -1.445716         1.844610
 H         2.388455         0.655645         2.635240
 H         3.870891        -0.270590         2.282965
 H         3.876590         1.996420        -0.403639
 H         2.315999        -0.610649        -2.406075
 H         1.961017        -2.374885        -0.413161
 H         3.550486        -2.143091         0.448053
