19
Iteration:  2714
 C         0.051659         0.712893        -0.084355
 C         1.385610         0.163186         0.071767
 C         1.832070        -1.157595         0.963412
 C         2.649824        -0.281971         1.867268
 C         2.668766         0.665582         0.694676
 O         3.152458         2.010120         0.693006
 C         2.687784        -0.207456        -0.631106
 O         3.292671         0.413560        -1.675408
 C         2.775822        -1.714858        -0.117613
 H        -0.431181         0.400417        -1.020390
 H        -0.614893         0.268816         0.672345
 H        -0.052672         1.852989         0.003096
 H         0.864590        -1.706429         1.197698
 H         2.087705         0.268169         2.707580
 H         3.567716        -0.631525         2.260222
 H         3.636723         2.072598        -0.199127
 H         2.696160         0.510498        -2.527754
 H         2.158887        -2.466827        -0.702293
 H         3.682738        -2.192711         0.244314
