19
Iteration:  2819charge 0 multiplicity 1
 C         0.190318         0.737225        -0.354030
 C         1.395985         0.142473         0.264428
 C         1.759137        -1.227437         1.020926
 C         2.833181        -0.327670         1.911165
 C         2.674219         0.691546         0.720470
 O         3.081727         2.017400         0.688867
 C         2.731756        -0.209647        -0.508209
 O         3.200604         0.537099        -1.660217
 C         2.629197        -1.750450        -0.205782
 H        -0.647970         0.072814        -0.016250
 H         0.019849         1.779428         0.071837
 H         0.205863         0.680774        -1.425110
 H         1.126099        -2.058909         1.268601
 H         2.198143         0.041478         2.723647
 H         3.784451        -0.921341         2.250769
 H         3.324434         2.116671        -0.195009
 H         2.575895         0.684396        -2.414123
 H         1.980047        -2.341235        -0.875087
 H         3.679625        -2.280123         0.059071
