19
Iteration:  4195
 C         0.128745         0.866925        -0.217044
 C         1.377904         0.122038         0.124596
 C         1.820342        -1.169052         1.022974
 C         2.715134        -0.288435         1.901960
 C         2.699788         0.679729         0.651240
 O         3.009778         2.013148         0.728589
 C         2.722289        -0.222777        -0.560496
 O         3.274820         0.299567        -1.791293
 C         2.688461        -1.683056        -0.105044
 H         0.028703         1.176675        -1.280521
 H        -0.677917         0.269625         0.060523
 H         0.108373         1.810958         0.363281
 H         1.138574        -1.973637         1.375067
 H         2.211434         0.141269         2.810579
 H         3.721707        -0.719105         2.030033
 H         3.997260         2.120809         0.866982
 H         2.371559         0.170964        -2.336402
 H         2.417442        -2.282559        -0.894553
 H         3.621761        -2.074126         0.270257
