19
Iteration:  1895
 C         0.086113         0.644093        -0.276715
 C         1.470421         0.081798         0.063726
 C         1.784097        -1.227851         0.871643
 C         2.585737        -0.438164         1.885802
 C         2.673922         0.643961         0.788033
 O         3.054683         1.902007         0.998549
 C         2.803239        -0.111459        -0.584771
 O         3.226033         0.708477        -1.695477
 C         2.866719        -1.641107        -0.288625
 H         0.074596         1.073419        -1.311214
 H        -0.777301        -0.097105        -0.255839
 H        -0.169258         1.509900         0.327670
 H         1.045759        -1.932028         1.215639
 H         1.844291         0.039890         2.629954
 H         3.451451        -0.801590         2.446158
 H         3.252753         2.421556         0.254942
 H         2.737003         0.423315        -2.496046
 H         2.325293        -2.279875        -1.084340
 H         3.814801        -2.223729         0.011195
