19
Iteration:  3482
 C        -0.009156         0.650147        -0.139307
 C         1.397482         0.047503         0.017646
 C         1.744495        -1.268455         0.825803
 C         2.557432        -0.440486         1.839814
 C         2.660997         0.619877         0.794489
 O         3.028424         1.976666         0.871200
 C         2.812821        -0.069810        -0.586453
 O         3.411168         0.634828        -1.649583
 C         2.785588        -1.546928        -0.275230
 H        -0.050988         1.255999        -1.022661
 H        -0.763195        -0.096973        -0.117902
 H        -0.128184         1.339458         0.704531
 H         0.975846        -1.944423         1.162763
 H         2.062206        -0.057692         2.775721
 H         3.362913        -1.005396         2.330303
 H         3.911191         2.086086         0.498044
 H         3.585611         0.283850        -2.490674
 H         2.259260        -2.057133        -1.085068
 H         3.682967        -2.169589         0.065514
