19
Iteration:  1758
 C         0.025802         0.673543        -0.266392
 C         1.407170         0.125457         0.094166
 C         1.804672        -1.289965         0.744061
 C         2.660304        -0.556173         1.823909
 C         2.637639         0.633209         0.756643
 O         2.997641         1.956533         1.001592
 C         2.769762        -0.071952        -0.541256
 O         3.317482         0.616096        -1.598881
 C         2.866453        -1.495653        -0.284119
 H        -0.797219        -0.015561         0.126854
 H        -0.067489         1.670276         0.232099
 H        -0.259708         0.659952        -1.349000
 H         0.820418        -1.881889         0.931200
 H         2.165598        -0.181043         2.619851
 H         3.538586        -1.041605         2.136882
 H         3.255641         2.389124         0.234795
 H         3.051910         0.406747        -2.440866
 H         2.664857        -2.260786        -1.026194
 H         3.853716        -1.811315         0.264805
