19
Iteration:  1603charge 0 multiplicity 1
 C         0.041296         0.624420        -0.237516
 C         1.383094         0.158847         0.069808
 C         1.816116        -1.221602         0.674905
 C         2.583095        -0.534950         1.814605
 C         2.678786         0.594025         0.817080
 O         2.966666         1.916875         1.085811
 C         2.762487        -0.068698        -0.563779
 O         3.359668         0.682085        -1.607641
 C         2.951052        -1.564672        -0.336688
 H         0.131926         1.712603        -0.427255
 H        -0.392498         0.134458        -1.089636
 H        -0.658283         0.625574         0.657312
 H         0.997575        -1.883082         0.875066
 H         1.991877        -0.195828         2.619127
 H         3.468688        -1.127987         2.163964
 H         2.840581         2.424281         0.221954
 H         2.693490         0.478542        -2.378063
 H         2.577941        -2.204699        -1.201985
 H         3.871251        -2.077375         0.147880
