19
Iteration:  2353charge 0 multiplicity 1
 C         0.011491         0.644839        -0.262415
 C         1.376104         0.115679         0.171761
 C         1.789018        -1.203389         0.905342
 C         2.735124        -0.315438         1.866573
 C         2.740676         0.682648         0.726996
 O         3.116244         1.976310         0.739885
 C         2.743991        -0.147356        -0.544933
 O         3.229984         0.523607        -1.590700
 C         2.746975        -1.651678        -0.169560
 H        -0.404521         1.566645         0.096961
 H         0.108329         0.737968        -1.326293
 H        -0.690993        -0.185635         0.039882
 H         0.827319        -1.651568         1.305026
 H         2.209272         0.110658         2.661990
 H         3.627101        -0.859638         2.144717
 H         3.721257         2.100382        -0.105102
 H         2.778212         0.341555        -2.425589
 H         2.234712        -2.084454        -1.053486
 H         3.660564        -2.260918         0.046397
