19
Iteration:  2389charge 0 multiplicity 1
 C         0.138369         0.676528        -0.352516
 C         1.418038         0.101616         0.252088
 C         1.897086        -1.227494         1.012932
 C         2.788782        -0.304946         1.935372
 C         2.630695         0.664393         0.813883
 O         3.114519         1.981574         0.722393
 C         2.601245        -0.179155        -0.572053
 O         3.228879         0.549211        -1.608599
 C         2.667473        -1.671789        -0.278647
 H        -0.405263         1.499550         0.210252
 H         0.382734         1.105779        -1.410473
 H        -0.536784        -0.059919        -0.862792
 H         1.060149        -1.781329         1.304291
 H         2.178357        -0.028251         2.787716
 H         3.721106        -0.574585         2.254833
 H         3.304429         2.206260        -0.289371
 H         2.849838         0.309305        -2.480460
 H         1.932760        -2.232422        -0.847050
 H         3.648981        -2.331088        -0.118384
