19
Iteration:  4992
 C         0.156769         0.834508        -0.113522
 C         1.353015         0.128088         0.293927
 C         1.790863        -0.961200         1.304838
 C         2.868137         0.071541         1.910399
 C         2.806613         0.746586         0.520878
 O         3.275442         1.990383         0.239628
 C         2.599271        -0.376370        -0.515621
 O         3.103842         0.005252        -1.803214
 C         2.522744        -1.756507         0.094775
 H         0.389629         0.991852        -1.145371
 H        -0.709478         0.094871        -0.046299
 H        -0.048866         1.837537         0.386260
 H         1.129701        -1.525260         2.017083
 H         2.435910         0.667549         2.740169
 H         3.811672        -0.453839         2.396818
 H         3.657890         1.923453        -0.635343
 H         2.334528         0.243545        -2.399981
 H         1.713591        -2.307185        -0.469078
 H         3.379710        -2.341861         0.298652
