19
Iteration:  2084
 C         0.113380         0.683060        -0.281283
 C         1.394813         0.045992         0.229017
 C         1.791801        -1.283603         0.876022
 C         2.727584        -0.339880         1.930351
 C         2.658482         0.662198         0.807810
 O         2.980149         1.979646         0.787546
 C         2.755123        -0.168183        -0.528844
 O         3.337956         0.598516        -1.623949
 C         2.759625        -1.631125        -0.350789
 H        -0.914828         0.230061        -0.084061
 H         0.302295         1.673313         0.118074
 H         0.105167         0.992375        -1.377871
 H         1.236636        -2.141940         1.205606
 H         1.996458        -0.141268         2.778199
 H         3.553322        -0.745781         2.386216
 H         3.327378         2.203437        -0.048938
 H         2.604301         0.812276        -2.281747
 H         1.992361        -2.113035        -1.093466
 H         3.630225        -2.327448        -0.309490
