19
Iteration:  1933charge 0 multiplicity 1
 C         0.078602         0.628177        -0.328026
 C         1.289278         0.035116         0.219282
 C         1.824625        -1.302978         0.890052
 C         2.633491        -0.463689         1.822186
 C         2.607623         0.647868         0.765870
 O         3.114105         1.957567         0.850985
 C         2.663229        -0.060937        -0.575584
 O         3.339721         0.688746        -1.545717
 C         2.833438        -1.579036        -0.271652
 H         0.527996         1.507172        -0.772238
 H        -0.320596         0.114394        -1.169384
 H        -0.709086         0.818778         0.442818
 H         1.056244        -1.880216         1.445065
 H         2.006215        -0.338484         2.726896
 H         3.738182        -0.801259         2.105904
 H         3.636066         2.114018        -0.001226
 H         2.850532         0.508550        -2.478442
 H         2.302413        -1.951736        -1.115166
 H         3.814571        -1.969144        -0.232059
