19
Iteration:  2204
 C         0.047530         0.642741        -0.309394
 C         1.366728         0.057272         0.118215
 C         1.804310        -1.132412         0.894922
 C         2.689576        -0.402855         1.876066
 C         2.707925         0.622589         0.740886
 O         3.075956         1.942271         0.822503
 C         2.798551        -0.095693        -0.504977
 O         3.280564         0.554821        -1.664222
 C         2.722541        -1.596688        -0.185152
 H        -0.000461         0.712391        -1.407390
 H        -0.773275         0.178981         0.199428
 H        -0.062144         1.538438         0.181956
 H         1.192550        -1.885451         1.304084
 H         2.061238         0.022917         2.777089
 H         3.712711        -0.875204         2.149148
 H         3.449459         2.133433        -0.006240
 H         2.415906         0.545421        -2.256423
 H         2.312525        -2.150842        -0.998948
 H         3.673453        -1.998569         0.050504
