19
Iteration:   323
 C         0.114929         0.538198        -0.547569
 C         1.434962         0.012997        -0.036498
 C         1.789463        -1.450412         0.462884
 C         2.497259        -0.801340         1.666250
 C         2.612910         0.474069         0.907749
 O         2.787486         1.797682         1.547071
 C         2.895171         0.092503        -0.534655
 O         3.375792         1.203762        -1.280486
 C         3.020435        -1.391910        -0.601766
 H        -0.334980        -0.224931        -1.157404
 H        -0.471465         0.775969         0.332666
 H         0.078871         1.455420        -1.279954
 H         1.013376        -2.375873         0.569494
 H         1.853129        -0.626463         2.631363
 H         3.436646        -1.325637         2.123481
 H         3.112814         2.411626         0.823025
 H         2.839618         1.208192        -2.082058
 H         2.837416        -1.781700        -1.662651
 H         3.967468        -1.902767        -0.237529
