19
Iteration:   813charge 0 multiplicity 1
 C         0.048407         0.557700        -0.422127
 C         1.372576         0.065832         0.045443
 C         1.912439        -1.451782         0.696120
 C         2.586640        -0.563865         1.800713
 C         2.530595         0.569729         0.846630
 O         2.898252         1.891647         1.296484
 C         2.791344         0.009480        -0.569180
 O         3.487471         0.964613        -1.329138
 C         2.864437        -1.521671        -0.670625
 H        -0.512176         1.097318         0.291877
 H         0.005526         1.168461        -1.324817
 H        -0.521745        -0.354099        -0.719392
 H         1.137809        -2.244726         0.969206
 H         1.866127        -0.473487         2.572926
 H         3.574234        -0.842505         1.991668
 H         3.207669         2.189331         0.476664
 H         3.081953         0.959126        -2.240560
 H         2.246061        -1.836173        -1.467080
 H         3.799058        -2.024613        -0.632628
