19
Iteration:   728charge 0 multiplicity 1
 C         0.107492         0.744107        -0.426777
 C         1.372214        -0.031040         0.028642
 C         1.931539        -1.425434         0.629048
 C         2.488656        -0.677855         1.855861
 C         2.560105         0.498732         0.886535
 O         2.823471         1.811886         1.282590
 C         2.841385         0.017028        -0.579633
 O         3.321044         1.028228        -1.456830
 C         3.059649        -1.482039        -0.524814
 H         0.471371         1.694400        -0.804316
 H        -0.322584         0.224929        -1.233317
 H        -0.595499         0.949384         0.431562
 H         1.379801        -2.401882         0.732507
 H         1.719227        -0.520482         2.561778
 H         3.372068        -1.067243         2.324938
 H         3.244252         2.324708         0.489458
 H         2.773148         0.937712        -2.316088
 H         2.541992        -2.007159        -1.357737
 H         4.095681        -1.978213        -0.354207
