19
Iteration:  1505charge 0 multiplicity 1
 C         0.135425         0.679769        -0.367064
 C         1.384360         0.032594         0.078080
 C         1.818938        -1.369649         0.777907
 C         2.651303        -0.501809         1.812826
 C         2.610661         0.613266         0.842675
 O         2.913325         1.894001         1.081620
 C         2.738864         0.021535        -0.543834
 O         3.374422         0.712091        -1.531007
 C         2.819240        -1.535877        -0.405558
 H        -0.056355         0.602299        -1.451406
 H        -0.657439         0.110606         0.045978
 H         0.070732         1.742275        -0.142918
 H         1.250684        -2.203873         1.111247
 H         2.241877        -0.268676         2.779572
 H         3.712151        -0.910579         2.093319
 H         3.498032         2.255761         0.379822
 H         2.680624         0.918442        -2.251273
 H         2.316733        -1.928653        -1.265678
 H         3.758855        -1.977805        -0.343279
