19
Iteration:  2296charge 0 multiplicity 1
 C         0.027402         0.724683        -0.168436
 C         1.445159         0.069112         0.144268
 C         1.817310        -1.253986         0.894901
 C         2.572424        -0.310835         1.880188
 C         2.706899         0.642973         0.727132
 O         3.102514         2.042172         0.812481
 C         2.765739        -0.159149        -0.573114
 O         3.268751         0.406534        -1.691215
 C         2.826217        -1.590017        -0.240628
 H         0.064961         1.796822        -0.168730
 H        -0.508000         0.394428        -1.023985
 H        -0.710604         0.396131         0.559677
 H         0.933490        -1.908099         1.200017
 H         1.955793         0.147080         2.597194
 H         3.424502        -0.794534         2.312444
 H         3.446732         2.298513        -0.061915
 H         2.578967         0.515326        -2.317955
 H         2.449991        -2.348613        -0.992294
 H         3.826223        -1.839104         0.074140
