19
Iteration:   154charge 0 multiplicity 1
 C         0.134757         0.607258        -0.360323
 C         1.467161         0.003638        -0.037489
 C         1.920885        -1.448553         0.321961
 C         2.407569        -0.911137         1.715997
 C         2.525887         0.393675         0.998595
 O         2.638193         1.734098         1.380057
 C         2.898716         0.180780        -0.487696
 O         3.415179         1.276180        -1.229237
 C         3.088073        -1.329373        -0.670361
 H         0.160450         1.573109        -0.898747
 H        -0.263904        -0.125193        -1.082152
 H        -0.523711         0.671800         0.488225
 H         1.271150        -2.193803         0.247754
 H         1.547579        -0.847218         2.362914
 H         3.325015        -1.473199         2.090550
 H         3.414582         2.136422         1.086105
 H         3.484253         0.886896        -2.171319
 H         2.724337        -1.518972        -1.669356
 H         4.009221        -1.900548        -0.513639
