19
Iteration:  1271charge 0 multiplicity 1
 C         0.183300         0.643906        -0.379733
 C         1.432045         0.055478         0.133205
 C         1.886210        -1.403682         0.758849
 C         2.556416        -0.538129         1.820735
 C         2.604527         0.598783         0.880106
 O         2.897581         1.919112         1.176538
 C         2.777690        -0.046783        -0.618997
 O         3.348061         0.879849        -1.532094
 C         2.834594        -1.589231        -0.489751
 H        -0.137337         1.422748         0.294023
 H         0.300403         1.052263        -1.397397
 H        -0.615013        -0.189183        -0.515511
 H         1.174973        -2.222052         1.087242
 H         1.730699        -0.407215         2.663309
 H         3.580857        -0.955315         2.242285
 H         3.285159         2.335532         0.343875
 H         2.777277         0.973467        -2.364499
 H         2.223223        -1.976693        -1.291790
 H         3.781838        -2.139795        -0.515736
