19
Iteration:   558
 C         0.141336         0.719326        -0.510210
 C         1.397502         0.058412         0.016859
 C         1.883568        -1.403723         0.508433
 C         2.620815        -0.810880         1.807448
 C         2.532256         0.506648         0.936612
 O         2.726663         1.827235         1.385623
 C         2.801582         0.048035        -0.553745
 O         3.339627         1.015575        -1.399576
 C         3.014862        -1.449586        -0.533787
 H        -0.706213         0.368310         0.150312
 H         0.208340         1.863620        -0.587449
 H        -0.061059         0.421968        -1.495087
 H         1.212952        -2.265187         0.523690
 H         2.001177        -0.808953         2.717561
 H         3.693689        -1.144950         2.003655
 H         3.423693         2.296116         0.880219
 H         2.881171         0.931523        -2.328538
 H         2.871784        -1.963252        -1.532836
 H         4.027630        -1.880526        -0.050769
