19
Iteration:  4817
 C         0.147138         0.837649        -0.149536
 C         1.482042         0.217665         0.225107
 C         1.748349        -0.970699         1.170492
 C         2.815702        -0.156299         1.897372
 C         2.782655         0.785968         0.622433
 O         3.290747         2.019714         0.401129
 C         2.617511        -0.377888        -0.547672
 O         3.001250         0.008133        -1.884171
 C         2.573873        -1.724723         0.092462
 H         0.343060         1.875297        -0.395368
 H        -0.328862         0.338202        -1.081980
 H        -0.431446         0.826597         0.779244
 H         0.892643        -1.355501         1.740062
 H         2.294230         0.450697         2.564844
 H         3.710543        -0.544448         2.361081
 H         2.454545         2.610639         0.306177
 H         4.013835        -0.014321        -2.023841
 H         2.045808        -2.574220        -0.507340
 H         3.653055        -2.100201         0.326199
