19
Iteration:  2799charge 0 multiplicity 1
 C         0.107506         0.771644        -0.302119
 C         1.432932         0.043785         0.105634
 C         1.804061        -1.100224         1.045348
 C         2.783169        -0.365233         1.879228
 C         2.746989         0.629560         0.740302
 O         3.011157         1.950069         0.711781
 C         2.720535        -0.203846        -0.548071
 O         3.199608         0.504894        -1.641043
 C         2.665080        -1.627670        -0.166529
 H        -0.745868         0.144884        -0.185207
 H         0.090999         1.756520         0.166022
 H         0.199186         1.033011        -1.330600
 H         1.050291        -1.754414         1.606087
 H         2.529547        -0.184464         2.974244
 H         3.845076        -0.799204         1.908835
 H         3.376875         2.044720        -0.195406
 H         2.791262         0.410511        -2.432992
 H         2.185815        -2.212861        -0.890563
 H         3.505427        -2.180754         0.293981
