19
Iteration:  4244charge 0 multiplicity 1
 C         0.106262         0.784058        -0.286077
 C         1.395565         0.088332         0.211500
 C         1.813174        -1.209115         1.058059
 C         2.642161        -0.252932         1.980618
 C         2.703258         0.622561         0.786353
 O         3.151046         1.998143         0.609898
 C         2.763483        -0.164417        -0.521724
 O         3.205268         0.332978        -1.811532
 C         2.723974        -1.607119        -0.148945
 H         0.249065         1.815337        -0.605687
 H        -0.490750         0.109809        -1.013830
 H        -0.548284         0.926985         0.588545
 H         1.087730        -1.860558         1.507803
 H         1.933278         0.301378         2.608585
 H         3.655440        -0.572031         2.348555
 H         3.883846         1.802254         0.038925
 H         2.520168         0.815494        -2.163868
 H         2.019043        -2.104418        -0.921280
 H         3.548013        -2.361242        -0.034446
