19
Iteration:  1716charge 0 multiplicity 1
 C         0.160494         0.581947        -0.290062
 C         1.396323         0.020645         0.126210
 C         1.872608        -1.280249         0.829228
 C         2.545127        -0.413408         1.858804
 C         2.673162         0.620479         0.756482
 O         3.016352         1.931129         1.058956
 C         2.756866        -0.075196        -0.634640
 O         3.322608         0.687455        -1.585592
 C         2.770661        -1.528284        -0.387334
 H        -0.646419         0.605974         0.430777
 H         0.485113         1.655014        -0.558891
 H        -0.337372         0.135422        -1.080822
 H         1.269862        -2.203585         1.172250
 H         1.596821        -0.210109         2.493474
 H         3.436985        -0.660043         2.486487
 H         3.411395         2.328464         0.235353
 H         2.579122         0.742339        -2.229065
 H         2.187024        -2.033376        -1.153808
 H         3.824417        -2.053025        -0.372691
