19
Iteration:  1825charge 0 multiplicity 1
 C         0.170914         0.634312        -0.262758
 C         1.437634         0.025434         0.154541
 C         1.804180        -1.244458         0.812650
 C         2.657186        -0.527464         1.838595
 C         2.636553         0.603826         0.765459
 O         2.901461         2.030460         0.888927
 C         2.750275        -0.069967        -0.586542
 O         3.327482         0.700410        -1.562818
 C         2.776277        -1.609157        -0.292285
 H        -0.498355        -0.006658        -0.936187
 H        -0.483544         1.021172         0.623311
 H         0.579346         1.506903        -0.828352
 H         0.974622        -1.926669         1.196069
 H         2.130042        -0.083055         2.592482
 H         3.465140        -1.120168         2.170613
 H         3.863998         2.083460         0.503779
 H         2.727669         0.693158        -2.426154
 H         2.329747        -2.136705        -1.131172
 H         3.776134        -2.155331        -0.041219
