19
Iteration:  1049charge 0 multiplicity 1
 C         0.040443         0.650986        -0.378850
 C         1.384399        -0.018746         0.028360
 C         1.815439        -1.382182         0.647508
 C         2.525784        -0.514270         1.813387
 C         2.657510         0.522396         0.821294
 O         2.949981         1.870683         1.262833
 C         2.784833        -0.021872        -0.584394
 O         3.341398         0.869509        -1.483468
 C         2.952388        -1.521676        -0.496896
 H         0.022671         0.777584        -1.528021
 H        -0.851304        -0.052815        -0.233717
 H        -0.035560         1.612796         0.103636
 H         1.248688        -2.236901         1.004097
 H         1.852307        -0.144336         2.665798
 H         3.407970        -0.784529         2.311680
 H         3.448704         2.355091         0.664112
 H         2.734625         1.327358        -1.990335
 H         2.914139        -2.109138        -1.459459
 H         3.992089        -1.850493        -0.106878
