19
Iteration:  1512
 C         0.173383         0.645949        -0.363379
 C         1.392372         0.041551         0.086070
 C         1.754912        -1.360131         0.792710
 C         2.661277        -0.581052         1.827824
 C         2.616097         0.607166         0.821952
 O         2.897165         1.947286         1.051878
 C         2.796119        -0.009275        -0.539005
 O         3.372481         0.773523        -1.539232
 C         2.757639        -1.525120        -0.390188
 H         0.030031         0.647960        -1.456561
 H        -0.562510        -0.015810         0.125364
 H         0.015554         1.737073         0.043173
 H         1.223766        -2.278956         1.150938
 H         2.250053        -0.154693         2.763794
 H         3.665777        -0.970901         2.029145
 H         3.606938         2.120011         0.310098
 H         2.656153         0.844583        -2.332482
 H         2.475975        -1.956767        -1.474252
 H         3.824789        -2.014886        -0.089141
