19
Iteration:  2291
 C         0.073555         0.718737        -0.157315
 C         1.455190         0.112529         0.099631
 C         1.789169        -1.247471         0.903242
 C         2.574283        -0.364908         1.889885
 C         2.700287         0.649169         0.706387
 O         3.089878         2.059143         0.803357
 C         2.701949        -0.169973        -0.566941
 O         3.271536         0.437148        -1.687074
 C         2.845621        -1.639418        -0.204000
 H         0.073383         1.839308        -0.224687
 H        -0.406824         0.259334        -1.087459
 H        -0.626171         0.494115         0.687142
 H         1.044286        -1.932098         1.200331
 H         1.949354         0.164581         2.738555
 H         3.524015        -0.815797         2.392600
 H         3.399198         2.377977        -0.114133
 H         2.576889         0.495280        -2.408536
 H         2.448684        -2.205116        -1.027359
 H         3.886994        -2.010936         0.022866
