19
Iteration:  3095
 C         0.072641         0.599226        -0.295959
 C         1.329627         0.116083         0.244193
 C         1.750758        -1.164910         0.853733
 C         2.716637        -0.370616         1.884243
 C         2.723513         0.642551         0.730658
 O         3.192872         1.955023         0.718271
 C         2.722170        -0.091518        -0.507153
 O         3.265561         0.633348        -1.501219
 C         2.708160        -1.660624        -0.285704
 H         0.074843         0.350203        -1.452879
 H        -0.818235        -0.120246         0.037512
 H        -0.295203         1.645723        -0.130414
 H         0.968406        -1.884100         1.431745
 H         2.037593         0.004889         2.650486
 H         3.655218        -0.857202         2.130039
 H         3.345914         2.031867        -0.342914
 H         2.904515         0.319662        -2.265102
 H         2.169106        -2.272715        -0.939459
 H         3.676444        -2.150411         0.019382
