19
Iteration:  2669charge 0 multiplicity 1
 C         0.104810         0.706076        -0.284138
 C         1.374816         0.149913         0.254428
 C         1.787713        -1.243376         1.045781
 C         2.774765        -0.320806         1.872166
 C         2.714871         0.669044         0.724486
 O         3.108972         2.028767         0.569248
 C         2.648450        -0.210013        -0.541298
 O         3.272261         0.477436        -1.589340
 C         2.653436        -1.640697        -0.157529
 H         0.022863         0.653897        -1.383154
 H        -0.820455         0.209798         0.063054
 H         0.069563         1.812958        -0.000711
 H         1.225107        -1.957546         1.694286
 H         2.353501        -0.083825         2.906802
 H         3.701688        -0.797073         2.020573
 H         3.621501         2.043373        -0.357638
 H         2.732376         0.339911        -2.495274
 H         1.998429        -2.208764        -0.947733
 H         3.618161        -2.116801        -0.051836
