19
Iteration:    48
 C         0.114267         0.519672        -0.555352
 C         1.407887        -0.012495        -0.028026
 C         1.979110        -1.504200         0.344263
 C         2.396191        -0.869428         1.731808
 C         2.470661         0.435796         1.012612
 O         2.769945         1.654392         1.589551
 C         2.812142         0.189479        -0.476945
 O         3.354135         1.304472        -1.204293
 C         3.119655        -1.225628        -0.778942
 H        -0.617074        -0.150102        -0.936693
 H        -0.321523         1.307993         0.134674
 H         0.374940         1.233899        -1.444271
 H         1.457154        -2.381517         0.372431
 H         1.681221        -0.956036         2.456325
 H         3.345791        -1.182832         2.148984
 H         3.591737         2.000717         1.028729
 H         3.463693         0.830824        -2.147381
 H         2.552223        -1.403529        -1.734509
 H         4.204048        -1.713828        -0.903487
