19
Iteration:   545
 C         0.244040         0.596730        -0.462274
 C         1.443627         0.041035         0.081527
 C         1.782768        -1.419536         0.499020
 C         2.570457        -0.794511         1.680393
 C         2.578997         0.524348         0.941038
 O         2.686539         1.881232         1.378672
 C         2.819230         0.084676        -0.550364
 O         3.327515         1.017142        -1.387722
 C         3.002301        -1.405323        -0.527606
 H        -0.694396         0.773438         0.159042
 H         0.501513         1.645668        -0.760976
 H        -0.001368        -0.015646        -1.298403
 H         1.137159        -2.182488         0.538350
 H         2.053846        -0.628598         2.617974
 H         3.544150        -1.414502         1.874223
 H         3.639696         2.069652         1.086788
 H         2.939839         0.910824        -2.208207
 H         2.548308        -1.940465        -1.450786
 H         4.123732        -1.794886        -0.237392
