19
Iteration:  2070
 C         0.153550         0.773499        -0.271284
 C         1.434413         0.108601         0.114634
 C         1.899362        -1.282522         0.905847
 C         2.620537        -0.454130         1.965760
 C         2.646854         0.604873         0.820843
 O         2.980221         1.992637         0.806038
 C         2.727566        -0.104429        -0.578799
 O         3.287355         0.568771        -1.629860
 C         2.764665        -1.632184        -0.323293
 H        -0.588310         0.106663         0.259634
 H        -0.151561         1.849100         0.031268
 H        -0.057189         0.624963        -1.315886
 H         1.100552        -1.979019         1.287896
 H         2.023026        -0.034980         2.851541
 H         3.696222        -0.813424         2.173792
 H         3.378314         2.088908        -0.136717
 H         2.614612         0.574367        -2.371818
 H         2.294818        -2.281308        -1.056721
 H         3.775133        -1.966539        -0.051338
