19
Iteration:  3979
 C         0.178642         0.874641        -0.329191
 C         1.356445         0.034782         0.114755
 C         1.786344        -1.220856         1.033066
 C         2.704503        -0.357616         1.917806
 C         2.648105         0.643270         0.708734
 O         3.071890         1.949839         0.748690
 C         2.700582        -0.184528        -0.570290
 O         3.108493         0.518710        -1.684799
 C         2.850296        -1.665985        -0.172013
 H         0.339073         1.867982         0.184810
 H         0.047574         1.088319        -1.426551
 H        -0.702465         0.260590         0.048644
 H         1.046440        -1.961594         1.317166
 H         2.203607         0.097568         2.779018
 H         3.606115        -0.831312         2.231062
 H         4.060140         2.038473         0.743820
 H         3.000972         0.121562        -2.647751
 H         2.276875        -2.394750        -0.830291
 H         3.853810        -1.954878         0.229982
