19
Iteration:  2319charge 0 multiplicity 1
 C        -0.022507         0.688713        -0.162302
 C         1.384682         0.054312         0.083267
 C         1.839828        -1.212915         0.954164
 C         2.611944        -0.275907         1.941956
 C         2.577469         0.641723         0.723299
 O         3.179174         1.945697         0.845037
 C         2.689898        -0.096970        -0.592404
 O         3.346163         0.434423        -1.820031
 C         2.835986        -1.583512        -0.150457
 H        -0.070906         1.721237         0.088705
 H        -0.381386         0.579500        -1.157449
 H        -0.890074         0.118711         0.261283
 H         1.185315        -2.060735         1.408492
 H         2.014001         0.132238         2.670252
 H         3.577801        -0.558444         2.323420
 H         3.826493         2.134936         0.128159
 H         2.583220         0.649019        -2.539814
 H         2.277556        -1.983770        -1.045321
 H         3.800155        -2.090226        -0.018491
