19
Iteration:   527
 C         0.192761         0.583151        -0.520221
 C         1.436330         0.030728         0.066945
 C         1.888974        -1.414102         0.551688
 C         2.566345        -0.769907         1.818764
 C         2.581164         0.490782         0.931360
 O         2.703355         1.834646         1.340434
 C         2.885982         0.141299        -0.476706
 O         3.360186         1.078327        -1.429876
 C         2.899378        -1.446827        -0.641179
 H        -0.455974         0.998192         0.284258
 H         0.420979         1.415594        -1.250365
 H        -0.426679        -0.166865        -1.035794
 H         1.180256        -2.356441         0.658337
 H         1.751929        -0.811379         2.559968
 H         3.476356        -1.114701         2.274038
 H         3.639288         2.098389         1.596771
 H         2.965776         0.953860        -2.243749
 H         2.585455        -1.638742        -1.642981
 H         3.756188        -2.040150        -0.425021
