19
Iteration:  3115
 C         0.019692         0.580413        -0.353163
 C         1.378474         0.140649         0.066418
 C         1.778496        -1.214656         0.998988
 C         2.725316        -0.406703         1.958699
 C         2.609870         0.658596         0.742019
 O         3.191884         1.960303         0.803589
 C         2.747684        -0.137979        -0.588576
 O         3.280356         0.641212        -1.620038
 C         2.677836        -1.584097        -0.232087
 H        -0.136549         0.309547        -1.415558
 H        -0.615201         0.097408         0.454369
 H         0.078016         1.646340        -0.111065
 H         1.035478        -1.982581         1.493381
 H         2.299600        -0.179243         2.934382
 H         3.745439        -0.841257         2.173714
 H         3.681357         1.972653        -0.121312
 H         2.766670         0.450474        -2.413313
 H         2.095750        -2.125315        -1.034789
 H         3.575294        -2.084233         0.088246
