19
Iteration:  2430charge 0 multiplicity 1
 C         0.124536         0.704117        -0.288138
 C         1.377901         0.105618         0.136955
 C         1.772827        -1.174260         0.964009
 C         2.666301        -0.357655         1.963225
 C         2.626646         0.667720         0.771731
 O         3.169586         2.004692         0.797827
 C         2.755843        -0.163417        -0.579089
 O         3.146503         0.475292        -1.826676
 C         2.794174        -1.639897        -0.111817
 H        -0.540503         0.542870         0.529776
 H         0.399119         1.716170        -0.434310
 H        -0.276802         0.285792        -1.253996
 H         1.016316        -1.961290         1.158415
 H         2.290645        -0.032542         2.896590
 H         3.820048        -0.629963         2.223096
 H         3.667575         2.016616         0.038705
 H         2.377189         0.370373        -2.439300
 H         2.279704        -2.449750        -0.606596
 H         3.816091        -1.928489         0.154435
