19
Iteration:  3069charge 0 multiplicity 1
 C         0.037271         0.667738        -0.335271
 C         1.356401         0.086639         0.090527
 C         1.870119        -1.294217         1.013767
 C         2.657376        -0.347983         1.935981
 C         2.640706         0.683829         0.796938
 O         3.188664         1.946176         0.790943
 C         2.669036        -0.086749        -0.569083
 O         3.299985         0.579000        -1.634854
 C         2.742823        -1.613002        -0.242911
 H         0.034132         0.845375        -1.445369
 H        -0.787677        -0.030746        -0.101751
 H        -0.203471         1.584263         0.232404
 H         1.131220        -1.978781         1.374089
 H         2.165240        -0.027637         2.857102
 H         3.703926        -0.765264         2.131054
 H         3.434716         1.894743        -0.229752
 H         2.784094         0.459720        -2.384024
 H         1.876906        -2.105690        -0.858178
 H         3.692981        -2.115763        -0.255201
