19
Iteration:  2200
 C         0.063897         0.608053        -0.281151
 C         1.396418         0.073633         0.097853
 C         1.816748        -1.151583         0.900748
 C         2.672996        -0.397081         1.868072
 C         2.704470         0.642831         0.718944
 O         3.094451         1.941689         0.844270
 C         2.773894        -0.071375        -0.555791
 O         3.268506         0.556021        -1.657385
 C         2.721896        -1.611258        -0.159793
 H         0.059281         0.644102        -1.352989
 H        -0.825202         0.129323         0.242707
 H        -0.052067         1.712212         0.094179
 H         1.002690        -1.887092         1.247055
 H         2.016879        -0.059955         2.647314
 H         3.617008        -0.872009         2.263676
 H         3.447972         2.286452        -0.068235
 H         2.471794         0.541774        -2.145366
 H         2.259347        -2.186090        -0.969898
 H         3.725292        -2.076353         0.077388
