19
Iteration:  2515charge 0 multiplicity 1
 C         0.057763         0.731850        -0.162219
 C         1.306254         0.088038         0.223366
 C         1.726752        -1.184344         1.059724
 C         2.763450        -0.397942         1.848235
 C         2.729189         0.643489         0.663024
 O         3.054104         2.028871         0.588291
 C         2.670040        -0.156141        -0.549594
 O         3.376362         0.465113        -1.557902
 C         2.757234        -1.640201        -0.228468
 H        -0.846362         0.123129        -0.209698
 H        -0.246578         1.538438         0.506852
 H         0.107437         1.061051        -1.189688
 H         0.979857        -1.886324         1.535591
 H         2.347359         0.142377         2.723941
 H         3.695829        -0.721645         1.973947
 H         3.352260         2.127873        -0.424180
 H         3.063611         0.291436        -2.499479
 H         2.156943        -2.153639        -1.074790
 H         3.704972        -2.130249         0.017472
