19
Iteration:  4268
 C         0.057864         0.728845        -0.261421
 C         1.370135         0.134203         0.146860
 C         1.780048        -1.162958         1.008401
 C         2.763860        -0.239762         1.894382
 C         2.634976         0.665848         0.742955
 O         3.283805         2.012888         0.686197
 C         2.595025        -0.221570        -0.597207
 O         3.225449         0.313500        -1.633042
 C         2.709649        -1.614817        -0.126643
 H         0.146778         1.798674        -0.262458
 H        -0.063835         0.326132        -1.357833
 H        -0.877480         0.541901         0.276405
 H         1.080683        -1.853132         1.499336
 H         2.264563         0.217208         2.709335
 H         3.738632        -0.667389         2.029398
 H         3.375333         2.132766        -0.306138
 H         2.657414         0.647058        -2.419015
 H         2.228353        -2.482192        -0.763896
 H         3.695449        -2.051537         0.150426
