19
Iteration:  5000
 C         0.097014         0.841811        -0.147083
 C         1.388552         0.157598         0.306454
 C         1.832424        -0.986787         1.351423
 C         2.813387         0.081233         1.904268
 C         2.826266         0.684165         0.600153
 O         3.272707         1.946719         0.185390
 C         2.614894        -0.340040        -0.518373
 O         3.114047         0.021661        -1.795154
 C         2.526897        -1.741417         0.080161
 H         0.249196         1.405642        -1.122698
 H        -0.843860         0.194317        -0.284473
 H        -0.075784         1.580987         0.698042
 H         1.146169        -1.510099         1.993799
 H         2.428837         0.869175         2.645155
 H         3.791980        -0.335489         2.159932
 H         3.872337         1.967035        -0.542756
 H         2.205470        -0.081014        -2.312574
 H         1.702168        -2.332993        -0.453982
 H         3.475090        -2.312436         0.126382
