19
Iteration:  4880charge 0 multiplicity 1
 C         0.157807         0.772555        -0.128569
 C         1.437928         0.194988         0.222358
 C         1.696917        -1.003565         1.306574
 C         2.839252        -0.117217         1.905447
 C         2.757043         0.710293         0.608994
 O         3.334537         2.034022         0.275147
 C         2.608816        -0.309557        -0.560266
 O         2.956194         0.072040        -1.819628
 C         2.581235        -1.685068         0.114594
 H        -0.517743         1.058666         0.675152
 H         0.311636         1.698669        -0.798902
 H        -0.419916         0.138263        -0.850600
 H         0.827838        -1.497579         1.648556
 H         2.357851         0.544629         2.736616
 H         3.735782        -0.735061         2.284165
 H         3.976064         1.893735        -0.499068
 H         3.948792         0.121338        -1.871498
 H         1.928597        -2.371634        -0.463277
 H         3.570438        -1.993011         0.294792
