19
Iteration:  1863
 C         0.038876         0.709927        -0.315222
 C         1.337261         0.079225         0.059926
 C         1.879286        -1.266859         0.853316
 C         2.683188        -0.432140         1.865720
 C         2.618041         0.671291         0.818774
 O         2.999715         1.929142         1.059088
 C         2.712736        -0.059297        -0.570211
 O         3.301731         0.512602        -1.667725
 C         2.919437        -1.566064        -0.350091
 H        -0.149933         0.560565        -1.392010
 H        -0.911913         0.456223         0.144853
 H         0.185546         1.766676        -0.089075
 H         1.209561        -2.072948         1.091467
 H         1.940097        -0.123941         2.743365
 H         3.618333        -0.834281         2.402983
 H         3.550252         2.299447         0.236002
 H         2.613669         0.729927        -2.397737
 H         2.311425        -2.099215        -1.143242
 H         3.873522        -2.072479        -0.105529
