19
Iteration:  1929
 C         0.086129         0.629312        -0.336137
 C         1.346269         0.058571         0.190326
 C         1.791105        -1.299448         0.885573
 C         2.641181        -0.501231         1.821253
 C         2.605800         0.669248         0.805111
 O         3.114111         1.951295         0.839414
 C         2.676004        -0.062235        -0.552159
 O         3.304753         0.685276        -1.561814
 C         2.842251        -1.576835        -0.285045
 H         0.520661         1.551410        -0.823780
 H        -0.462616        -0.061391        -1.034577
 H        -0.628583         0.882072         0.492316
 H         1.045186        -1.935350         1.460861
 H         1.927300        -0.209821         2.725365
 H         3.660372        -0.806116         2.136122
 H         3.559781         2.248089         0.061815
 H         2.927096         0.449959        -2.337938
 H         2.299138        -2.027257        -1.234428
 H         3.912645        -1.968128        -0.135379
