19
Iteration:    44
 C         0.130597         0.539330        -0.565897
 C         1.417913         0.009291        -0.043158
 C         1.982695        -1.482739         0.336898
 C         2.434121        -0.883548         1.708252
 C         2.446629         0.449479         1.023767
 O         2.768499         1.647399         1.582839
 C         2.799766         0.168639        -0.511107
 O         3.353942         1.335393        -1.211098
 C         3.102825        -1.265635        -0.737277
 H        -0.737007        -0.114228        -0.741363
 H        -0.319758         1.247522         0.120167
 H         0.379383         1.019223        -1.485759
 H         1.370124        -2.424927         0.357557
 H         1.704847        -1.041430         2.568054
 H         3.430550        -1.228513         2.110321
 H         3.515007         1.819785         1.091668
 H         3.521194         0.983029        -2.029236
 H         2.661093        -1.475031        -1.686789
 H         4.058415        -1.598989        -0.663201
