19
Iteration:  2547charge 0 multiplicity 1
 C         0.063123         0.736830        -0.227137
 C         1.402424         0.132785         0.141497
 C         1.880826        -1.191597         1.051604
 C         2.723252        -0.304629         1.946909
 C         2.664809         0.664313         0.743496
 O         3.103207         1.948178         0.623579
 C         2.660950        -0.196898        -0.603395
 O         3.259648         0.471504        -1.614108
 C         2.704404        -1.676211        -0.208542
 H        -0.556078        -0.006857        -0.806636
 H        -0.524212         1.163617         0.657732
 H         0.130459         1.650412        -0.863477
 H         1.183793        -1.933914         1.531396
 H         2.193378         0.192860         2.819561
 H         3.722300        -0.324807         2.223891
 H         3.687494         2.036394        -0.090037
 H         2.869235         0.308699        -2.450595
 H         1.993169        -2.158330        -1.011847
 H         3.627200        -2.307631        -0.203154
