19
Iteration:  1881charge 0 multiplicity 1
 C         0.151494         0.675416        -0.305313
 C         1.366489        -0.009659         0.133513
 C         1.824249        -1.349858         0.870697
 C         2.565899        -0.342045         1.850207
 C         2.651821         0.603256         0.714645
 O         3.073929         1.977848         1.106800
 C         2.754159        -0.087150        -0.631954
 O         3.296860         0.632708        -1.698323
 C         2.784379        -1.571862        -0.306256
 H         0.098376         0.864062        -1.391806
 H        -0.681076        -0.044689         0.165080
 H         0.008461         1.626857         0.203593
 H         1.222114        -2.124189         1.277665
 H         1.913430         0.033500         2.563953
 H         3.458690        -0.726113         2.241066
 H         3.317455         2.343884         0.134702
 H         2.584009         0.605971        -2.454757
 H         2.434283        -2.207154        -1.119221
 H         3.860547        -1.844237         0.036178
