19
Iteration:  4121
 C         0.040013         0.734499        -0.242164
 C         1.407111         0.073796         0.130835
 C         1.709947        -1.162406         0.992340
 C         2.657914        -0.226448         1.950341
 C         2.695375         0.684381         0.762277
 O         3.214107         1.886868         0.692996
 C         2.732059        -0.237438        -0.619536
 O         3.220062         0.546523        -1.681389
 C         2.697421        -1.667274        -0.175907
 H        -0.854902         0.077032        -0.481396
 H        -0.323193         1.313644         0.652214
 H         0.387731         1.422492        -1.089621
 H         1.027034        -1.871834         1.443859
 H         2.088872         0.175298         2.858374
 H         3.691076        -0.583315         2.369555
 H         3.486993         2.004642        -0.228576
 H         3.640565         0.043674        -2.412246
 H         2.193958        -2.456607        -0.835402
 H         3.762599        -2.133516         0.047257
