19
Iteration:   474
 C         0.037084         0.576267        -0.437868
 C         1.355411         0.054238         0.034300
 C         1.800476        -1.414021         0.470697
 C         2.513734        -0.815902         1.692690
 C         2.556245         0.504563         0.937736
 O         2.746592         1.787342         1.352282
 C         2.915796         0.157449        -0.511081
 O         3.460599         1.057063        -1.405557
 C         3.079122        -1.381890        -0.479781
 H        -0.094374         1.588791        -0.150649
 H        -0.135763         0.602916        -1.494372
 H        -0.770052        -0.079611         0.071838
 H         1.027228        -2.316284         0.353156
 H         1.963181        -0.765600         2.664449
 H         3.473871        -1.245777         1.807549
 H         3.602290         2.236583         1.014695
 H         2.971675         1.156899        -2.163834
 H         2.854022        -1.773250        -1.469653
 H         4.021894        -1.759950        -0.146323
