19
Iteration:  3017
 C         0.157325         0.766275        -0.234985
 C         1.460410         0.089256         0.105702
 C         1.819851        -1.203541         0.916403
 C         2.621794        -0.430086         1.989851
 C         2.706816         0.713493         0.786965
 O         2.983934         2.060194         0.890698
 C         2.784994        -0.179363        -0.667482
 O         3.193732         0.419066        -1.818011
 C         2.771504        -1.597436        -0.211098
 H         0.449846         1.690624        -0.800531
 H        -0.674703         0.118673        -0.664570
 H        -0.168333         1.073336         0.771918
 H         1.063826        -2.012688         1.250715
 H         1.987112        -0.206989         2.811898
 H         3.508238        -0.841477         2.461158
 H         3.712697         2.010774         0.309053
 H         2.655728         0.105760        -2.586821
 H         2.345539        -2.186875        -0.985644
 H         3.730209        -2.004967         0.131758
