19
Iteration:  2625charge 0 multiplicity 1
 C         0.166580         0.731238        -0.336732
 C         1.372475         0.041010         0.211022
 C         1.815824        -1.212908         1.126160
 C         2.697190        -0.290170         1.853891
 C         2.707759         0.711560         0.683113
 O         3.221691         1.990505         0.812111
 C         2.697386        -0.141270        -0.553552
 O         3.134496         0.413189        -1.776084
 C         2.679262        -1.623195        -0.170869
 H         0.018683         0.544321        -1.420469
 H        -0.675781         0.131192         0.100339
 H         0.048802         1.814726        -0.052940
 H         1.249295        -2.033466         1.543974
 H         2.142109         0.358553         2.599746
 H         3.605196        -0.644439         2.326076
 H         3.463616         2.355048        -0.138179
 H         2.383103         0.130661        -2.453975
 H         2.138406        -2.347972        -0.903164
 H         3.622007        -2.050122         0.158050
