19
Iteration:  1435
 C         0.082626         0.676518        -0.316769
 C         1.452403         0.096013         0.037465
 C         1.812521        -1.375591         0.684181
 C         2.514082        -0.543398         1.881905
 C         2.693579         0.571554         0.852979
 O         2.950857         1.951623         1.077899
 C         2.813809        -0.067491        -0.577822
 O         3.254725         0.876927        -1.546476
 C         2.915527        -1.630832        -0.396448
 H        -0.549950        -0.203675        -0.406936
 H        -0.326422         1.212653         0.550507
 H         0.057719         1.235557        -1.324622
 H         0.939439        -2.052809         0.932337
 H         1.835705        -0.325763         2.760245
 H         3.462260        -0.841367         2.417414
 H         3.666120         2.025603         0.495133
 H         3.063755         0.493453        -2.342936
 H         2.544700        -2.115706        -1.398347
 H         3.928273        -2.080497        -0.070766
