19
Iteration:  4066charge 0 multiplicity 1
 C         0.041295         0.594017        -0.326825
 C         1.401902         0.141391         0.156559
 C         1.751771        -1.133940         0.993073
 C         2.651873        -0.309152         1.924747
 C         2.701482         0.723962         0.726086
 O         3.286099         1.903004         0.762557
 C         2.682042        -0.112968        -0.589077
 O         3.230474         0.498837        -1.668059
 C         2.687930        -1.643870        -0.167743
 H        -0.848918         0.228932         0.283539
 H        -0.048610         1.686003        -0.133734
 H        -0.316091         0.456866        -1.422985
 H         0.941067        -1.771906         1.337324
 H         2.328231        -0.020538         2.944060
 H         3.616736        -0.829419         2.119674
 H         3.705497         2.096444        -0.074854
 H         2.874187         0.179339        -2.438397
 H         2.092481        -2.275094        -0.857729
 H         3.704846        -1.977199         0.220923
