19
Iteration:  3457charge 0 multiplicity 1
 C         0.013461         0.688355        -0.138811
 C         1.423503         0.187031         0.099786
 C         1.793218        -1.255369         0.768885
 C         2.494584        -0.409316         1.839676
 C         2.653852         0.624383         0.824558
 O         3.037294         1.934043         0.900956
 C         2.714986        -0.103590        -0.610665
 O         3.341130         0.545904        -1.655568
 C         2.889208        -1.549297        -0.311470
 H         0.026548         1.199955        -1.114196
 H        -0.626367        -0.188664        -0.198331
 H        -0.317306         1.329518         0.631641
 H         1.031789        -1.955652         0.990062
 H         1.904057        -0.196778         2.783747
 H         3.439815        -0.854426         2.340837
 H         4.040177         2.033332         0.735217
 H         3.480011         0.159775        -2.579136
 H         2.604978        -2.159307        -1.162888
 H         3.889813        -1.913690         0.073497
