19
Iteration:  1632
 C         0.098341         0.629187        -0.348911
 C         1.439149         0.073877         0.086986
 C         1.921199        -1.357010         0.826335
 C         2.571791        -0.486309         1.899972
 C         2.608265         0.635441         0.822612
 O         2.995950         1.940740         1.077127
 C         2.766183        -0.062663        -0.540262
 O         3.364107         0.775007        -1.647758
 C         2.797113        -1.604080        -0.415171
 H         0.269670         1.625126         0.061312
 H        -0.226027         0.654920        -1.397941
 H        -0.760350         0.064927         0.174430
 H         1.101452        -2.007145         1.087531
 H         1.796501        -0.106029         2.588422
 H         3.476507        -0.829630         2.362129
 H         3.023603         2.271912         0.211870
 H         2.845215         0.404067        -2.331547
 H         1.992196        -1.902908        -1.123556
 H         3.633946        -2.248744        -0.379596
