19
Iteration:   708charge 0 multiplicity 1
 C         0.202084         0.634212        -0.385926
 C         1.472500         0.084047         0.028863
 C         1.835419        -1.433382         0.506537
 C         2.552479        -0.731609         1.778804
 C         2.594921         0.511111         0.927708
 O         2.752781         1.908256         1.254914
 C         2.842041         0.052806        -0.522768
 O         3.335914         0.977366        -1.383678
 C         2.955810        -1.501436        -0.538274
 H         0.271078         1.431270        -1.172731
 H        -0.484160        -0.155833        -0.716277
 H        -0.191249         1.197552         0.488569
 H         1.078995        -2.120636         0.763631
 H         1.849753        -0.657048         2.553643
 H         3.466520        -1.151774         2.273289
 H         2.894042         2.316760         0.334331
 H         2.979544         0.812429        -2.204595
 H         2.748132        -1.975054        -1.493767
 H         3.830160        -1.933170        -0.192570
