19
Iteration:    54charge 0 multiplicity 1
 C         0.110682         0.542227        -0.562341
 C         1.387254        -0.047559        -0.011856
 C         1.987042        -1.497082         0.354287
 C         2.392739        -0.865394         1.733759
 C         2.488513         0.425577         0.995080
 O         2.783687         1.671776         1.586316
 C         2.849471         0.228363        -0.440661
 O         3.350198         1.251806        -1.207299
 C         3.128349        -1.206509        -0.829425
 H        -0.519285        -0.245002        -1.059918
 H        -0.379930         1.173723         0.173831
 H         0.334247         1.276760        -1.297231
 H         1.399624        -2.504318         0.337097
 H         1.462786        -0.855003         2.447635
 H         3.327384        -1.228782         2.248875
 H         3.422581         2.134673         1.130975
 H         3.402425         0.908296        -2.081541
 H         2.548949        -1.397872        -1.728269
 H         4.051844        -1.670063        -0.971560
