19
Iteration:  3579
 C         0.196948         0.717829        -0.412355
 C         1.412042         0.040687         0.144060
 C         1.801486        -1.284408         0.970695
 C         2.588878        -0.401633         1.870870
 C         2.672300         0.624166         0.754886
 O         3.071277         1.947532         0.973456
 C         2.764926        -0.103416        -0.583997
 O         3.147790         0.641977        -1.721502
 C         2.790303        -1.611984        -0.252921
 H         0.256941         1.718719        -0.010500
 H         0.110108         0.595539        -1.493895
 H        -0.656258         0.326371         0.099788
 H         1.219049        -2.119446         1.286437
 H         1.944163         0.141607         2.690460
 H         3.485133        -0.647658         2.494566
 H         3.989766         1.937406         0.790459
 H         2.767005         0.198496        -2.423078
 H         2.224633        -1.861375        -1.080239
 H         3.754156        -2.180125        -0.187498
