19
Iteration:  3865
 C         0.042832         0.655448        -0.228327
 C         1.364761         0.130058         0.150388
 C         1.776208        -1.170101         0.916790
 C         2.617494        -0.295754         1.934281
 C         2.623359         0.657547         0.778897
 O         3.223489         1.952117         0.797578
 C         2.766562        -0.153746        -0.570592
 O         3.295175         0.558029        -1.666144
 C         2.723622        -1.670931        -0.295106
 H        -0.107949         0.772305        -1.314172
 H        -0.760897         0.017772         0.169636
 H        -0.248941         1.670117         0.236784
 H         1.013814        -1.915373         1.298013
 H         1.984012        -0.025489         2.763474
 H         3.536267        -0.796651         2.131008
 H         3.573787         1.933890        -0.152625
 H         3.229893         0.020718        -2.438034
 H         2.134552        -2.214485        -0.979401
 H         3.702887        -2.134463         0.040141
