19
Iteration:   576charge 0 multiplicity 1
 C         0.062092         0.730212        -0.479213
 C         1.382272        -0.019078        -0.037665
 C         1.931553        -1.477928         0.607021
 C         2.534595        -0.676380         1.750819
 C         2.468836         0.461278         0.906082
 O         2.820263         1.751408         1.387584
 C         2.839499         0.111230        -0.501016
 O         3.403559         1.036368        -1.421577
 C         3.054872        -1.431413        -0.535296
 H        -0.859099         0.252914        -0.127164
 H         0.207315         1.711553        -0.063540
 H        -0.085846         0.888384        -1.598102
 H         1.378613        -2.368097         0.859392
 H         1.814540        -0.620430         2.548415
 H         3.487239        -1.071067         2.169241
 H         3.039981         2.165262         0.518415
 H         2.833975         1.077389        -2.291849
 H         2.596744        -1.884795        -1.432222
 H         4.047634        -1.812641        -0.449917
