19
Iteration:  2509charge 0 multiplicity 1
 C         0.028220         0.745642        -0.143283
 C         1.356970         0.126538         0.166610
 C         1.742667        -1.174854         1.021414
 C         2.741791        -0.335108         1.850883
 C         2.746901         0.601720         0.651204
 O         3.040015         2.028512         0.623164
 C         2.656699        -0.181823        -0.564565
 O         3.360927         0.455259        -1.560489
 C         2.752132        -1.632230        -0.224254
 H        -0.790667        -0.020401        -0.011143
 H        -0.291789         1.621880         0.476428
 H         0.167898         0.984058        -1.232284
 H         1.130445        -1.949733         1.410761
 H         2.437813         0.078798         2.811406
 H         3.791484        -0.993723         2.008342
 H         3.310705         2.128655        -0.316715
 H         3.056446         0.339484        -2.552437
 H         2.215236        -2.223306        -0.908152
 H         3.581262        -2.187302         0.305947
