19
Iteration:  3414
 C         0.183867         0.714563        -0.313383
 C         1.452014         0.051665         0.151539
 C         1.750974        -1.228879         0.850952
 C         2.669117        -0.402827         1.783286
 C         2.597889         0.605291         0.749620
 O         2.964239         1.934628         0.973828
 C         2.778740        -0.099971        -0.558428
 O         3.286648         0.555309        -1.613409
 C         2.792569        -1.585090        -0.307938
 H         0.386834         1.673424        -0.807540
 H        -0.421889         0.042465        -0.887574
 H        -0.396366         1.138643         0.465269
 H         1.178423        -2.023581         1.194366
 H         2.129023         0.005431         2.728866
 H         3.553094        -0.840874         2.323675
 H         3.660645         2.177773         0.238371
 H         2.422485         0.795926        -2.139976
 H         2.248276        -2.170690        -1.023515
 H         3.849457        -1.984378        -0.031436
