19
Iteration:   745charge 0 multiplicity 1
 C         0.198574         0.690671        -0.421109
 C         1.386053        -0.096812        -0.041671
 C         1.908122        -1.475651         0.651037
 C         2.511835        -0.620093         1.802830
 C         2.479422         0.558536         0.874398
 O         2.891343         1.744606         1.293810
 C         2.743939         0.065108        -0.564616
 O         3.306568         0.981734        -1.460011
 C         3.012108        -1.396553        -0.461661
 H         0.492520         1.779547        -0.331305
 H        -0.259045         0.618967        -1.480598
 H        -0.609796         0.390454         0.225632
 H         1.273100        -2.385957         0.787606
 H         1.677469        -0.323121         2.550336
 H         3.577600        -0.886843         2.060227
 H         3.596534         2.119741         0.650491
 H         2.772251         1.070879        -2.246720
 H         2.743059        -1.823971        -1.429846
 H         4.009884        -1.571181        -0.085479
