19
Iteration:  3217
 C         0.169017         0.847889        -0.235017
 C         1.332518        -0.040272         0.123071
 C         1.861645        -1.251804         0.949419
 C         2.704757        -0.404105         1.942609
 C         2.581728         0.584866         0.711229
 O         2.956524         1.935089         0.799853
 C         2.762458        -0.126766        -0.536800
 O         3.311600         0.605271        -1.636885
 C         2.769310        -1.587219        -0.307387
 H        -0.806470         0.485153         0.228054
 H         0.237822         1.875784         0.260785
 H         0.108435         0.945441        -1.357731
 H         1.211671        -2.094202         1.245256
 H         2.079752        -0.058381         2.810881
 H         3.634753        -0.865078         2.203835
 H         3.275325         2.209711        -0.034596
 H         3.079916         0.195550        -2.570802
 H         2.262352        -2.239924        -0.936916
 H         3.774009        -2.057047        -0.127281
