19
Iteration:  4948charge 0 multiplicity 1
 C         0.077229         0.840941        -0.243590
 C         1.363549         0.188623         0.280128
 C         1.785663        -0.949037         1.273746
 C         2.892527        -0.060796         1.898733
 C         2.771659         0.719299         0.608072
 O         3.312382         2.008761         0.386107
 C         2.666372        -0.312484        -0.571377
 O         2.986003        -0.057311        -1.835174
 C         2.618530        -1.673600         0.122342
 H        -0.482941         0.068273        -0.707298
 H        -0.472890         1.298130         0.660558
 H         0.394606         1.679134        -0.921968
 H         0.979209        -1.487449         1.829959
 H         2.462648         0.642064         2.644871
 H         3.980135        -0.329599         2.236505
 H         3.816495         2.108040        -0.429026
 H         2.315265        -0.453433        -2.380022
 H         1.946277        -2.335012        -0.512919
 H         3.508768        -2.148143         0.425209
