19
Iteration:  3286charge 0 multiplicity 1
 C        -0.075313         0.640344        -0.202876
 C         1.399469         0.113010         0.151420
 C         1.869341        -1.247346         0.840212
 C         2.554308        -0.403401         1.885051
 C         2.620778         0.690119         0.806755
 O         3.157572         1.965808         0.905503
 C         2.733852        -0.151319        -0.660965
 O         3.443195         0.592703        -1.668583
 C         2.740452        -1.592686        -0.316358
 H        -0.446239         1.169705         0.715275
 H        -0.077302         1.345352        -1.059556
 H        -0.551582        -0.390588        -0.448976
 H         1.240234        -2.008177         1.214156
 H         1.774147         0.027998         2.573348
 H         3.461563        -0.760992         2.443987
 H         3.757086         2.116518         0.049015
 H         2.623038         0.752394        -2.245914
 H         2.163070        -2.352335        -0.869979
 H         3.667530        -2.102365        -0.109197
