19
Iteration:  2473charge 0 multiplicity 1
 C         0.060570         0.727950        -0.120643
 C         1.375084         0.000020         0.107252
 C         1.796701        -1.222010         0.978215
 C         2.592955        -0.183147         1.921773
 C         2.680064         0.715398         0.711187
 O         3.146603         1.994891         0.795864
 C         2.754396        -0.181912        -0.618333
 O         3.288839         0.410547        -1.770480
 C         2.770246        -1.632297        -0.211676
 H        -0.748479         0.167213         0.245810
 H         0.033526         1.704560         0.260779
 H        -0.196206         0.739182        -1.179048
 H         1.213209        -2.052930         1.417822
 H         2.029552         0.272353         2.732664
 H         3.544243        -0.771051         2.265826
 H         3.805163         2.179309         0.115600
 H         2.505878         0.270594        -2.459590
 H         2.212336        -2.164450        -0.984693
 H         3.606753        -2.206177         0.052508
