19
Iteration:  1657
 C         0.100989         0.669058        -0.407751
 C         1.357438         0.080112         0.147121
 C         1.815620        -1.370235         0.810999
 C         2.708989        -0.465686         1.882760
 C         2.623861         0.582393         0.757784
 O         2.979412         1.943152         1.013930
 C         2.696035        -0.124871        -0.551820
 O         3.304215         0.769114        -1.489912
 C         2.829461        -1.558779        -0.404135
 H        -0.050670         1.623708         0.107097
 H         0.146779         0.877023        -1.450176
 H        -0.733431        -0.082397        -0.325363
 H         1.106211        -2.099685         1.149317
 H         2.122643        -0.144594         2.650917
 H         3.699647        -0.702709         2.187299
 H         3.795793         2.106614         0.437555
 H         2.847414         0.549396        -2.391579
 H         2.374958        -2.093013        -1.294019
 H         3.886498        -1.856578        -0.169250
