19
Iteration:  3080charge 0 multiplicity 1
 C         0.018565         0.617144        -0.350407
 C         1.381328         0.123451         0.253987
 C         1.819022        -1.303574         0.976778
 C         2.675148        -0.385782         1.902771
 C         2.655502         0.689336         0.816013
 O         3.229729         2.011901         0.711468
 C         2.660415        -0.186904        -0.558027
 O         3.304548         0.626901        -1.584083
 C         2.684717        -1.632488        -0.272995
 H        -0.047036         0.782958        -1.459308
 H        -0.863014         0.015383        -0.092587
 H        -0.172651         1.636995         0.026514
 H         1.150561        -2.071672         1.328117
 H         2.032846        -0.039339         2.711403
 H         3.679410        -0.750127         2.341534
 H         3.406843         2.303467        -0.190837
 H         2.983550         0.515322        -2.531534
 H         2.252543        -2.213707        -1.195105
 H         3.626526        -2.136523        -0.093728
