19
Iteration:  1062
 C         0.186510         0.607308        -0.393974
 C         1.426332         0.028371        -0.010774
 C         1.799661        -1.396005         0.667983
 C         2.585698        -0.592816         1.827355
 C         2.575382         0.620596         0.854574
 O         2.892973         1.868155         1.223360
 C         2.797776         0.014662        -0.569531
 O         3.338191         0.927807        -1.512010
 C         2.927521        -1.540045        -0.434778
 H         0.007251         0.952055        -1.440360
 H        -0.612574        -0.113994        -0.019371
 H        -0.101617         1.490242         0.250582
 H         1.036176        -2.118598         0.842561
 H         1.767420        -0.521403         2.535996
 H         3.449963        -1.096831         2.211116
 H         3.631187         2.144469         0.529597
 H         2.572170         1.024094        -2.247751
 H         2.365131        -2.077350        -1.250332
 H         3.929631        -2.000272         0.020727
