19
Iteration:  3674charge 0 multiplicity 1
 C         0.109968         0.702456        -0.185928
 C         1.382756         0.085675         0.168391
 C         1.724352        -1.283532         0.865830
 C         2.621933        -0.389864         1.883483
 C         2.661361         0.642451         0.681475
 O         3.072519         1.973159         0.760149
 C         2.742325        -0.160224        -0.587978
 O         3.378199         0.619384        -1.495793
 C         2.768725        -1.618719        -0.323212
 H        -0.321662         1.017475         0.837482
 H         0.412191         1.611145        -0.812238
 H        -0.604966         0.069616        -0.692837
 H         1.122152        -2.064803         1.195537
 H         1.873431        -0.001999         2.563343
 H         3.466595        -0.790482         2.547090
 H         3.344522         2.078077        -0.254913
 H         2.943662         0.427039        -2.449479
 H         2.061078        -2.143585        -1.091423
 H         3.688068        -2.105375        -0.001877
