19
Iteration:  3567
 C         0.225256         0.716238        -0.353470
 C         1.431682         0.035436         0.120880
 C         1.798032        -1.266319         0.904921
 C         2.606242        -0.363293         1.913292
 C         2.721776         0.613196         0.752513
 O         3.030131         1.956378         0.927079
 C         2.736419        -0.146536        -0.559027
 O         3.145702         0.618895        -1.587993
 C         2.779442        -1.586529        -0.344789
 H         0.270417         1.828489        -0.399483
 H         0.024002         0.556702        -1.455259
 H        -0.680466         0.373915         0.094064
 H         1.102962        -1.960451         1.210642
 H         1.937853         0.149485         2.679683
 H         3.463224        -0.998470         2.217310
 H         4.010688         2.108709         0.585031
 H         2.723693         0.375693        -2.507950
 H         2.276650        -2.345604        -0.848602
 H         3.794369        -2.002579        -0.113749
