19
Iteration:  3993charge 0 multiplicity 1
 C         0.126971         0.852523        -0.319446
 C         1.386643         0.129395         0.208327
 C         1.773852        -1.210280         0.922679
 C         2.701893        -0.396667         1.867671
 C         2.759792         0.613217         0.750348
 O         3.055422         2.035089         0.807980
 C         2.677043        -0.214034        -0.561837
 O         3.146386         0.434499        -1.701374
 C         2.824464        -1.611391        -0.160684
 H        -0.254213         1.787273         0.125377
 H         0.383889         0.993169        -1.440490
 H        -0.809785         0.351786        -0.325936
 H         1.196678        -2.008780         1.400866
 H         2.213092         0.064718         2.737281
 H         3.666656        -0.849515         2.198010
 H         3.876274         2.045525         0.327547
 H         2.674776        -0.073980        -2.261423
 H         2.375050        -2.389251        -0.947841
 H         3.762928        -2.070888         0.088558
