19
Iteration:  3916charge 0 multiplicity 1
 C         0.056674         0.731298        -0.152926
 C         1.428948         0.175705         0.164935
 C         1.775084        -1.198076         0.875630
 C         2.713959        -0.351996         1.878236
 C         2.573487         0.681414         0.749366
 O         3.030476         2.009980         0.804571
 C         2.756695        -0.158732        -0.561005
 O         3.450360         0.377286        -1.761474
 C         2.695648        -1.624612        -0.160849
 H         0.047060         1.598741        -0.841078
 H        -0.715019        -0.034456        -0.463398
 H        -0.384135         1.117052         0.730059
 H         0.965694        -1.834758         1.260847
 H         2.095763        -0.075206         2.772303
 H         3.664569        -1.017431         2.013994
 H         3.520849         1.967497        -0.074470
 H         2.614611         0.559757        -2.426426
 H         2.214954        -2.096219        -1.141004
 H         3.612823        -2.127303         0.050494
