19
Iteration:  2334
 C         0.019538         0.624245        -0.221206
 C         1.354240         0.138941         0.090496
 C         1.820208        -1.223359         1.003509
 C         2.641196        -0.293500         1.882098
 C         2.658663         0.713132         0.762008
 O         3.167242         1.993654         0.836356
 C         2.676076        -0.193310        -0.682219
 O         3.303330         0.475158        -1.709251
 C         2.762256        -1.610419        -0.230281
 H        -0.118290         1.630863         0.299493
 H        -0.154382         0.697043        -1.364391
 H        -0.684070        -0.040782         0.373162
 H         1.056914        -1.890396         1.305778
 H         2.129692         0.024952         2.842353
 H         3.580143        -0.673189         2.280135
 H         3.848377         2.019614         0.037996
 H         2.718947         0.556888        -2.418179
 H         2.365520        -2.491575        -0.706889
 H         3.871344        -1.887218         0.150314
