19
Iteration:  2414
 C         0.121296         0.720416        -0.354167
 C         1.380031         0.021991         0.145941
 C         1.803104        -1.218343         1.019529
 C         2.756151        -0.301401         1.841982
 C         2.697442         0.658216         0.727767
 O         3.127996         1.967944         0.788709
 C         2.710297        -0.140995        -0.533385
 O         3.143155         0.499283        -1.691798
 C         2.734242        -1.641328        -0.117060
 H        -0.536375         0.977469         0.525720
 H         0.271785         1.683989        -0.950384
 H        -0.384228         0.192455        -1.156752
 H         1.181681        -1.857001         1.673679
 H         2.223374         0.089620         2.797901
 H         3.629665        -0.913878         2.129992
 H         3.619230         2.207794        -0.016999
 H         2.540653         0.505540        -2.369576
 H         2.335912        -2.082206        -1.066980
 H         3.676021        -2.151143         0.208629
