19
Iteration:  2420charge 0 multiplicity 1
 C         0.128346         0.705532        -0.336692
 C         1.393841         0.021401         0.108548
 C         1.788677        -1.213298         1.024947
 C         2.736837        -0.354497         1.878029
 C         2.675220         0.689766         0.757344
 O         3.145637         1.974010         0.790107
 C         2.705553        -0.122310        -0.559916
 O         3.159003         0.502672        -1.751228
 C         2.760200        -1.614263        -0.086701
 H        -0.624007         0.898745         0.432849
 H         0.390150         1.730729        -0.624457
 H        -0.453451         0.189620        -1.154297
 H         1.027094        -1.861209         1.453620
 H         2.210090         0.002268         2.703130
 H         3.771949        -0.767236         2.098835
 H         3.642499         2.141313         0.012437
 H         2.334720         0.402171        -2.360753
 H         2.251205        -2.211989        -0.840958
 H         3.641374        -2.185984         0.321158
