19
Iteration:  1691charge 0 multiplicity 1
 C         0.069704         0.661680        -0.407156
 C         1.413155         0.119903         0.113222
 C         1.787109        -1.349403         0.817599
 C         2.682967        -0.564695         1.947958
 C         2.606016         0.613085         0.849518
 O         2.993204         1.966104         0.937863
 C         2.801760        -0.060505        -0.547865
 O         3.273643         0.777797        -1.571435
 C         2.846005        -1.591195        -0.358642
 H        -0.562324         1.119230         0.404474
 H         0.208126         1.440381        -1.126015
 H        -0.631333        -0.127019        -0.671731
 H         0.920179        -2.052478         0.925928
 H         2.163017        -0.401482         2.810887
 H         3.659180        -0.886800         2.230491
 H         3.854597         2.080210         0.341245
 H         2.558810         0.524080        -2.307669
 H         2.541299        -2.172834        -1.267292
 H         3.865011        -2.048784        -0.078079
