19
Iteration:   803charge 0 multiplicity 1
 C         0.109487         0.491587        -0.405683
 C         1.422619         0.017275         0.065086
 C         1.874576        -1.374037         0.621306
 C         2.567170        -0.577943         1.789906
 C         2.516721         0.597812         0.921715
 O         2.882811         1.831913         1.251826
 C         2.796668         0.044742        -0.543024
 O         3.464962         0.961072        -1.378185
 C         2.830109        -1.478237        -0.614799
 H        -0.264149         1.166668         0.295795
 H         0.328971         0.976094        -1.306566
 H        -0.681543        -0.277177        -0.546170
 H         1.138171        -2.196355         0.845357
 H         1.945178        -0.415346         2.607607
 H         3.456862        -0.901410         2.213746
 H         3.259198         2.332247         0.549862
 H         3.102781         1.075575        -2.353748
 H         2.304680        -1.710937        -1.520346
 H         3.766750        -2.070946        -0.661629
