19
Iteration:  3136charge 0 multiplicity 1
 C        -0.025765         0.652817        -0.324340
 C         1.347971         0.094844         0.200233
 C         1.851795        -1.244098         0.905208
 C         2.651840        -0.317040         1.830582
 C         2.712388         0.698170         0.810738
 O         3.153110         1.989279         0.912433
 C         2.655810        -0.138689        -0.584600
 O         3.297650         0.522615        -1.711637
 C         2.791072        -1.670164        -0.244545
 H        -0.183046         0.103003        -1.221880
 H        -0.751736         0.623111         0.489455
 H         0.213764         1.691895        -0.529688
 H         1.046072        -1.952850         1.265936
 H         2.111640         0.016448         2.701537
 H         3.583513        -0.706038         2.329219
 H         3.812976         2.071425         0.267319
 H         2.588083         0.697835        -2.461049
 H         2.126101        -2.198348        -1.010971
 H         3.750561        -2.132154        -0.067208
