19
Iteration:   680
 C         0.011916         0.601863        -0.392752
 C         1.358280         0.071500         0.009206
 C         1.883790        -1.449671         0.585306
 C         2.616742        -0.705438         1.800108
 C         2.526531         0.518768         0.884734
 O         2.746468         1.829020         1.274176
 C         2.887862         0.100654        -0.563952
 O         3.540650         0.998842        -1.391705
 C         2.896692        -1.450978        -0.544033
 H        -0.004695         0.873049        -1.462106
 H        -0.845303        -0.093804        -0.179601
 H        -0.029783         1.476660         0.239176
 H         1.080157        -2.168022         0.863651
 H         1.894156        -0.517461         2.704969
 H         3.656776        -1.055940         1.943190
 H         3.258457         2.262852         0.555843
 H         3.127130         0.926094        -2.196011
 H         2.472951        -1.864982        -1.498003
 H         3.941679        -2.002550        -0.321369
