19
Iteration:  2415
 C         0.120941         0.717690        -0.350982
 C         1.385368         0.017400         0.138612
 C         1.802924        -1.216854         1.019968
 C         2.751588        -0.308875         1.843887
 C         2.693198         0.663819         0.734304
 O         3.129840         1.967352         0.790729
 C         2.707934        -0.135875        -0.538251
 O         3.145927         0.500322        -1.702745
 C         2.740930        -1.636602        -0.107028
 H        -0.541319         0.969407         0.499573
 H         0.275417         1.686097        -0.899046
 H        -0.385956         0.211713        -1.154494
 H         1.135567        -1.869358         1.661444
 H         2.203448         0.082832         2.796868
 H         3.689184        -0.923184         2.129565
 H         3.647995         2.213735        -0.044879
 H         2.502980         0.488179        -2.366997
 H         2.321414        -2.096214        -1.049617
 H         3.631913        -2.143245         0.226510
