19
Iteration:  3621charge 0 multiplicity 1
 C         0.135892         0.684543        -0.337978
 C         1.402341         0.129000         0.123409
 C         1.719698        -1.253429         0.866713
 C         2.668321        -0.449547         1.798959
 C         2.744468         0.671409         0.736628
 O         3.034285         1.985846         1.019118
 C         2.681356        -0.041845        -0.547627
 O         3.268225         0.452250        -1.679238
 C         2.799538        -1.527179        -0.236724
 H        -0.222476         1.666592         0.189560
 H         0.093797         0.905742        -1.506512
 H        -0.657106        -0.052094        -0.166682
 H         0.982445        -1.827716         1.275841
 H         2.282442        -0.360838         2.785218
 H         3.493620        -1.014961         2.160759
 H         3.939646         2.202275         0.552555
 H         2.631056         0.442467        -2.517587
 H         2.346029        -2.202433        -1.045700
 H         3.777627        -2.007142         0.090300
