19
Iteration:  4994
 C         0.137058         0.835400        -0.118523
 C         1.352352         0.134645         0.299832
 C         1.798825        -0.969183         1.317307
 C         2.851895         0.082688         1.909846
 C         2.817324         0.737935         0.541114
 O         3.272811         1.977433         0.228648
 C         2.601965        -0.370949        -0.518709
 O         3.106178         0.011111        -1.806204
 C         2.519908        -1.759736         0.085143
 H         0.390960         1.068815        -1.144687
 H        -0.688165         0.137823        -0.100040
 H        -0.027659         1.758373         0.451615
 H         1.128636        -1.528942         2.027531
 H         2.471722         0.698943         2.689548
 H         3.783975        -0.441207         2.345868
 H         3.733906         1.958633        -0.648792
 H         2.353176         0.152437        -2.304284
 H         1.733619        -2.266647        -0.449984
 H         3.434281        -2.344492         0.255578
