19
Iteration:  2362charge 0 multiplicity 1
 C         0.049566         0.637907        -0.308810
 C         1.391701         0.099836         0.182819
 C         1.757800        -1.217125         1.029685
 C         2.712457        -0.348678         1.855123
 C         2.706855         0.647770         0.731811
 O         3.120745         1.988293         0.699654
 C         2.800236        -0.125199        -0.482685
 O         3.240805         0.576546        -1.624548
 C         2.712513        -1.609628        -0.218120
 H        -0.260717         1.505461         0.229506
 H        -0.005081         0.778695        -1.361277
 H        -0.728664        -0.136230        -0.197286
 H         0.924944        -2.026884         1.350031
 H         2.370540         0.064822         2.841916
 H         3.740518        -0.860048         2.172307
 H         3.609093         2.125375        -0.222586
 H         2.779045         0.154053        -2.379196
 H         2.011066        -2.101426        -0.959302
 H         3.533270        -2.237679        -0.058380
