19
Iteration:  1217
 C         0.060421         0.611780        -0.373608
 C         1.357637         0.042414         0.049020
 C         1.793627        -1.321775         0.625243
 C         2.688793        -0.614462         1.832041
 C         2.594253         0.568025         0.828992
 O         2.960254         1.894721         1.134727
 C         2.729267        -0.017995        -0.600862
 O         3.355788         0.940051        -1.454520
 C         2.856639        -1.539897        -0.360895
 H         0.007142         1.583212         0.039922
 H         0.025677         0.602878        -1.432163
 H        -0.830607        -0.072641        -0.108802
 H         1.112230        -2.170138         0.878381
 H         2.093208        -0.525057         2.697759
 H         3.666310        -1.008850         1.998371
 H         3.646987         2.178110         0.455021
 H         3.152088         0.760935        -2.397483
 H         2.628744        -2.279115        -1.144131
 H         3.796255        -1.836360         0.236274
