19
Iteration:  4901
 C         0.070039         0.797498        -0.202137
 C         1.423528         0.204241         0.209840
 C         1.813049        -0.952165         1.188536
 C         2.819859         0.022927         1.940835
 C         2.835111         0.690870         0.671520
 O         3.314575         1.913834         0.298650
 C         2.697688        -0.282139        -0.543311
 O         2.876944         0.125265        -1.834597
 C         2.566663        -1.766760         0.170133
 H        -0.705803         0.494426         0.560521
 H         0.190463         1.920726        -0.232500
 H        -0.227393         0.499629        -1.258021
 H         1.122787        -1.544286         1.730944
 H         2.222474         0.518628         2.824680
 H         3.713470        -0.574069         2.311318
 H         4.102190         1.911461        -0.221773
 H         3.615049        -0.531952        -2.221474
 H         2.017716        -2.352680        -0.561781
 H         3.492282        -2.232727         0.490336
