19
Iteration:  4012charge 0 multiplicity 1
 C         0.214327         0.770975        -0.355322
 C         1.427150         0.117181         0.194772
 C         1.795136        -1.217514         1.020130
 C         2.736890        -0.385191         1.929574
 C         2.637307         0.719240         0.786878
 O         3.104467         1.987784         0.859491
 C         2.724911        -0.076440        -0.575604
 O         3.205980         0.344831        -1.779409
 C         2.674108        -1.595763        -0.236770
 H        -0.335894         1.323419         0.480927
 H         0.146467         1.293237        -1.349643
 H        -0.600097        -0.043116        -0.403493
 H         1.030526        -1.885092         1.394223
 H         2.143284        -0.008497         2.762945
 H         3.679740        -0.776292         2.223248
 H         3.417122         2.315798         0.025167
 H         2.583319         0.296046        -2.454573
 H         2.196759        -2.273149        -1.016873
 H         3.586154        -2.240512        -0.013425
