19
Iteration:   111
 C         0.039778         0.607472        -0.539259
 C         1.383472         0.043672        -0.087614
 C         1.909194        -1.467536         0.335409
 C         2.596433        -0.848711         1.649873
 C         2.509370         0.444039         0.938789
 O         2.677047         1.651202         1.557955
 C         2.850111         0.177999        -0.510335
 O         3.460768         1.213017        -1.166950
 C         3.066664        -1.360249        -0.642864
 H        -0.046704         0.906187        -1.550540
 H        -0.739671        -0.106765        -0.380162
 H        -0.014360         1.526687         0.013562
 H         1.379660        -2.302694         0.431094
 H         1.890341        -0.916682         2.455249
 H         3.657599        -1.140450         1.979352
 H         3.234387         2.247331         0.928579
 H         2.761265         1.620162        -1.840966
 H         2.827869        -1.716302        -1.609445
 H         3.907118        -1.786110        -0.286971
