19
Iteration:   878charge 0 multiplicity 1
 C         0.029586         0.667695        -0.369512
 C         1.403495        -0.035924        -0.030269
 C         1.925404        -1.357814         0.620654
 C         2.413236        -0.658729         1.863672
 C         2.670758         0.501642         0.911223
 O         2.897776         1.890716         1.190223
 C         2.817731         0.008375        -0.537721
 O         3.339378         0.972405        -1.453508
 C         3.050906        -1.528136        -0.534625
 H        -0.714136         0.067181         0.119156
 H         0.114332         1.705603        -0.004574
 H        -0.204057         0.749318        -1.466368
 H         1.115313        -2.029043         1.002976
 H         1.520870        -0.413243         2.363031
 H         3.277601        -1.015813         2.445219
 H         3.424709         2.350642         0.584825
 H         2.772215         0.876199        -2.130792
 H         2.525945        -2.001501        -1.290012
 H         3.971067        -1.945570        -0.385600
