19
Iteration:   415charge 0 multiplicity 1
 C         0.036124         0.654355        -0.367180
 C         1.438786        -0.071034        -0.147124
 C         1.907652        -1.442921         0.494613
 C         2.513927        -0.722880         1.775293
 C         2.557622         0.480745         0.851731
 O         2.687300         1.719226         1.356561
 C         2.901657         0.087846        -0.569378
 O         3.449316         1.185192        -1.225848
 C         3.020217        -1.441731        -0.590308
 H         0.116663         1.522022        -1.102833
 H        -0.839415        -0.015003        -0.579069
 H        -0.221837         1.164638         0.487197
 H         1.317433        -2.272612         0.508935
 H         1.761222        -0.639954         2.495974
 H         3.424003        -1.046526         2.291356
 H         3.179861         2.101401         0.647382
 H         3.365346         1.242947        -2.270753
 H         2.628158        -1.845991        -1.452564
 H         3.895317        -1.894368        -0.372479
