19
Iteration:  3318charge 0 multiplicity 1
 C         0.063786         0.571843        -0.279621
 C         1.395874         0.092076         0.088761
 C         1.712593        -1.221682         0.830164
 C         2.617576        -0.394349         1.827276
 C         2.624973         0.651812         0.805124
 O         3.213780         1.886211         0.947704
 C         2.775478        -0.087103        -0.507199
 O         3.305177         0.626354        -1.705063
 C         2.765741        -1.516300        -0.247350
 H        -0.381409         1.418573         0.318441
 H        -0.157461         0.813899        -1.345973
 H        -0.773812        -0.217171        -0.087346
 H         1.095040        -1.986584         1.181982
 H         2.133748         0.071996         2.726922
 H         3.510484        -0.724969         2.259970
 H         3.505592         2.256817         0.164892
 H         2.632940         0.420643        -2.323509
 H         2.307579        -2.109330        -1.023768
 H         3.689314        -1.983981         0.133910
