19
Iteration:  3492charge 0 multiplicity 1
 C        -0.001055         0.698304        -0.155505
 C         1.368634         0.136823         0.051328
 C         1.814652        -1.258807         0.879031
 C         2.557024        -0.438056         1.894330
 C         2.672051         0.629551         0.743453
 O         3.004419         1.971923         0.891929
 C         2.764597        -0.132406        -0.622983
 O         3.456803         0.653781        -1.604526
 C         2.772066        -1.670038        -0.299280
 H        -0.118232         1.303177        -1.041825
 H        -0.729549        -0.053456        -0.277805
 H        -0.369998         1.338701         0.617569
 H         1.228301        -2.085871         1.132836
 H         1.738900        -0.213314         2.696316
 H         3.633765        -0.790650         2.031266
 H         3.784258         2.145384         0.259526
 H         3.343968         0.277434        -2.529468
 H         2.246179        -2.065355        -1.134118
 H         3.816841        -2.131929        -0.140206
