19
Iteration:   978charge 0 multiplicity 1
 C         0.057712         0.618065        -0.389503
 C         1.437793         0.065332         0.020812
 C         1.843392        -1.429241         0.690959
 C         2.608605        -0.559367         1.836914
 C         2.629679         0.503024         0.845935
 O         2.842726         1.880234         1.173183
 C         2.778579        -0.037248        -0.579215
 O         3.427466         1.025615        -1.422200
 C         2.841466        -1.542841        -0.512797
 H        -0.373547        -0.118877        -1.013365
 H        -0.601834         0.674186         0.426033
 H         0.156103         1.586362        -0.953105
 H         1.096159        -2.231482         0.870691
 H         1.934197        -0.419774         2.613578
 H         3.515528        -1.068609         2.285337
 H         3.659328         2.256859         0.810133
 H         3.163689         0.724810        -2.279443
 H         2.405638        -1.934204        -1.372304
 H         3.681291        -2.049393        -0.253217
