19
Iteration:  2988
 C         0.151401         0.847001        -0.194098
 C         1.382324         0.047983         0.203784
 C         1.845700        -1.244219         0.952184
 C         2.669038        -0.326173         1.851590
 C         2.710405         0.616378         0.662696
 O         2.920158         2.009047         0.819956
 C         2.782890        -0.172387        -0.585497
 O         3.248092         0.412625        -1.705586
 C         2.745742        -1.582628        -0.260021
 H         0.394280         1.892583        -0.155207
 H        -0.207084         0.600547        -1.190717
 H        -0.647060         0.760004         0.559780
 H         1.312303        -2.116743         1.448634
 H         1.936179         0.043623         2.677837
 H         3.580212        -0.716048         2.374641
 H         3.899141         2.112932         0.532914
 H         2.838132         0.101153        -2.457195
 H         2.313691        -2.217497        -1.070026
 H         3.759190        -2.126246        -0.031319
