19
Iteration:   159
 C         0.113754         0.592259        -0.363283
 C         1.462426         0.024458        -0.031819
 C         1.886267        -1.429277         0.342827
 C         2.415045        -0.900674         1.677979
 C         2.553539         0.404140         0.940748
 O         2.615943         1.737142         1.403203
 C         2.947947         0.145701        -0.500443
 O         3.402327         1.279656        -1.222510
 C         3.112735        -1.343522        -0.658004
 H         0.109588         1.644387        -0.693851
 H        -0.178161        -0.045336        -1.214385
 H        -0.540995         0.645302         0.553859
 H         1.087408        -2.351809         0.287987
 H         1.639469        -0.860634         2.491423
 H         3.239726        -1.516428         2.009777
 H         3.487567         2.153048         1.062303
 H         3.500430         0.889597        -2.055166
 H         2.693827        -1.560685        -1.671404
 H         4.087419        -1.853485        -0.438337
