19
Iteration:  4258charge 0 multiplicity 1
 C         0.102865         0.715975        -0.268840
 C         1.343042         0.114650         0.189429
 C         1.809322        -1.145850         1.038503
 C         2.705007        -0.229354         1.950069
 C         2.666544         0.760880         0.710838
 O         3.226912         1.957867         0.657807
 C         2.638299        -0.194191        -0.518467
 O         3.235394         0.292404        -1.706426
 C         2.707119        -1.665732        -0.194815
 H         0.348888         1.766159        -0.417801
 H        -0.308093         0.427925        -1.312511
 H        -0.722216         0.648786         0.455010
 H         1.125987        -1.864349         1.534030
 H         2.186977        -0.044335         2.854613
 H         3.592841        -0.708134         2.290908
 H         3.637167         2.192172        -0.236044
 H         2.492861         0.833462        -2.244719
 H         2.171370        -2.324334        -0.984651
 H         3.742707        -1.903123         0.047910
