19
Iteration:  2288
 C         0.104165         0.712556        -0.154721
 C         1.427296         0.136277         0.075242
 C         1.778739        -1.234221         0.906106
 C         2.586351        -0.387294         1.912470
 C         2.701858         0.666378         0.710802
 O         3.079217         2.056026         0.796569
 C         2.684364        -0.176727        -0.577478
 O         3.269054         0.459553        -1.693998
 C         2.853739        -1.661233        -0.184336
 H         0.105451         1.813043        -0.279273
 H        -0.315956         0.225254        -1.098168
 H        -0.559273         0.535554         0.786011
 H         1.054400        -2.013007         1.244939
 H         2.016911         0.061266         2.686095
 H         3.472212        -0.760735         2.374698
 H         3.370021         2.367752        -0.121580
 H         2.665851         0.459784        -2.376369
 H         2.399004        -2.176756        -1.067617
 H         3.912020        -2.116771         0.043336
