19
Iteration:  2918
 C         0.023268         0.645709        -0.220402
 C         1.396067         0.156724         0.229445
 C         1.867111        -1.203004         0.952576
 C         2.647331        -0.340558         1.963866
 C         2.613104         0.710023         0.796647
 O         3.209110         2.022307         0.752178
 C         2.669691        -0.199529        -0.614215
 O         3.329091         0.489206        -1.707283
 C         2.690051        -1.651360        -0.340094
 H        -0.149833         1.322909         0.660254
 H         0.096656         1.161472        -1.213299
 H        -0.777063        -0.093197        -0.141774
 H         1.126438        -1.876950         1.425919
 H         1.975894         0.018712         2.722114
 H         3.588206        -0.620255         2.481248
 H         3.357498         2.093426        -0.168647
 H         2.891529         0.318975        -2.573888
 H         2.087052        -2.338893        -0.895482
 H         3.648820        -2.268281        -0.139027
