19
Iteration:  3135charge 0 multiplicity 1
 C        -0.025556         0.653576        -0.324278
 C         1.347300         0.083416         0.196336
 C         1.852398        -1.244013         0.908187
 C         2.653181        -0.319918         1.829696
 C         2.707623         0.699106         0.821359
 O         3.156963         1.991005         0.908466
 C         2.653583        -0.133413        -0.585286
 O         3.301463         0.530397        -1.714413
 C         2.783882        -1.677450        -0.239015
 H        -0.184472         0.119726        -1.226159
 H        -0.752099         0.604063         0.458532
 H         0.167025         1.708470        -0.533967
 H         1.078923        -1.928228         1.247310
 H         2.136633         0.008888         2.721855
 H         3.583091        -0.704983         2.342775
 H         3.841364         2.090770         0.241320
 H         2.599584         0.694347        -2.466859
 H         2.106156        -2.224039        -1.007173
 H         3.751381        -2.132420        -0.071473
