19
Iteration:  4187
 C         0.109139         0.876877        -0.263600
 C         1.383319         0.126480         0.172758
 C         1.864120        -1.192633         1.030017
 C         2.703664        -0.287031         1.838879
 C         2.674637         0.618155         0.744565
 O         2.997430         2.005756         0.741731
 C         2.737113        -0.176566        -0.573548
 O         3.281937         0.264688        -1.810947
 C         2.696868        -1.599393        -0.125815
 H        -0.256323         1.138940        -1.288124
 H        -0.829762         0.452278         0.127734
 H         0.230493         1.814061         0.343946
 H         1.223264        -1.822679         1.636300
 H         2.226372        -0.024844         2.845138
 H         3.735804        -0.692454         2.188341
 H         4.003529         2.031623         0.677784
 H         2.696867        -0.068445        -2.632894
 H         2.107819        -2.210772        -0.876077
 H         3.690845        -2.027006         0.286044
