19
Iteration:  2853charge 0 multiplicity 1
 C         0.072162         0.663319        -0.358268
 C         1.384930         0.151053         0.188360
 C         1.834169        -1.172156         1.017348
 C         2.701170        -0.277737         1.944632
 C         2.626469         0.694353         0.796278
 O         3.249875         1.887465         0.767343
 C         2.705316        -0.173773        -0.558004
 O         3.122114         0.479659        -1.711496
 C         2.748716        -1.578383        -0.242613
 H        -0.667125         0.201445         0.311461
 H        -0.055224         1.774604        -0.289361
 H        -0.171119         0.415459        -1.384485
 H         1.177897        -2.044394         1.300059
 H         2.131450         0.129527         2.842872
 H         3.698030        -0.630138         2.413485
 H         3.819363         1.937742        -0.068205
 H         2.559164         0.300596        -2.396219
 H         2.186346        -2.205972        -0.933644
 H         3.822993        -2.117244        -0.049638
