19
Iteration:    74charge 0 multiplicity 1
 C         0.145242         0.509694        -0.532766
 C         1.441956         0.035721         0.015268
 C         1.936406        -1.441990         0.300694
 C         2.463251        -0.908385         1.673092
 C         2.542779         0.444740         0.987486
 O         2.733617         1.695268         1.610734
 C         2.865402         0.187894        -0.505317
 O         3.394860         1.274855        -1.217542
 C         3.022197        -1.297879        -0.717214
 H        -0.130846        -0.140869        -1.473711
 H        -0.676031         0.651953         0.192414
 H         0.213100         1.551722        -0.907324
 H         1.243501        -2.425938         0.325831
 H         1.537555        -0.920900         2.393244
 H         3.312549        -1.386769         2.204004
 H         2.963209         2.313311         0.877027
 H         3.034254         1.170921        -2.171833
 H         2.712386        -1.557983        -1.774701
 H         4.054735        -1.808048        -0.480359
