19
Iteration:  4996
 C         0.117475         0.836226        -0.124344
 C         1.359479         0.142228         0.305273
 C         1.808212        -0.977668         1.331579
 C         2.839011         0.086249         1.908112
 C         2.824687         0.722309         0.565082
 O         3.271272         1.965361         0.215310
 C         2.605497        -0.361878        -0.521410
 O         3.112434         0.015623        -1.803869
 C         2.517058        -1.757865         0.078885
 H         0.366873         1.176569        -1.170053
 H        -0.695337         0.184279        -0.159996
 H        -0.018016         1.671472         0.523246
 H         1.144336        -1.515246         2.011859
 H         2.479119         0.756477         2.659996
 H         3.732879        -0.396284         2.263068
 H         3.804242         1.986588        -0.646975
 H         2.282745         0.068878        -2.282358
 H         1.744267        -2.252987        -0.436879
 H         3.492713        -2.351749         0.211371
