19
Iteration:  1346
 C         0.104202         0.635348        -0.299094
 C         1.390166         0.071965         0.041163
 C         1.885044        -1.319269         0.736644
 C         2.501672        -0.503118         1.829790
 C         2.664275         0.548824         0.844813
 O         2.893714         1.836889         1.091357
 C         2.853223        -0.020142        -0.553962
 O         3.364935         0.823130        -1.523192
 C         2.828638        -1.495828        -0.458485
 H        -0.684333         0.149140         0.315512
 H         0.047185         1.728697        -0.070100
 H        -0.223943         0.331835        -1.307907
 H         1.338998        -2.225574         0.935754
 H         1.880471        -0.112359         2.708874
 H         3.481871        -0.844514         2.268330
 H         3.493014         2.236955         0.495809
 H         3.091198         0.477422        -2.310090
 H         2.276331        -1.956378        -1.294446
 H         3.761569        -2.038693        -0.419533
