19
Iteration:   750
 C         0.161489         0.696504        -0.441215
 C         1.377829        -0.089961        -0.019835
 C         1.913298        -1.434277         0.629457
 C         2.522434        -0.624706         1.766478
 C         2.485218         0.556638         0.883943
 O         2.905425         1.772992         1.287760
 C         2.761116         0.040237        -0.554065
 O         3.299824         0.969253        -1.452222
 C         2.996033        -1.406187        -0.454619
 H         0.340251         1.715903        -0.181683
 H        -0.079544         0.625814        -1.453135
 H        -0.656065         0.307344         0.231403
 H         1.247084        -2.304642         0.614836
 H         1.858191        -0.498627         2.555972
 H         3.468669        -0.901782         2.198845
 H         3.563249         2.096313         0.740733
 H         2.737582         1.087425        -2.276145
 H         2.892318        -1.930970        -1.442473
 H         4.055092        -1.616140         0.030698
