19
Iteration:  4108charge 0 multiplicity 1
 C         0.074870         0.731582        -0.241673
 C         1.314929         0.127592         0.148755
 C         1.824681        -1.173282         1.003132
 C         2.635808        -0.277323         1.913385
 C         2.648669         0.619619         0.705798
 O         3.299742         1.913968         0.657390
 C         2.572118        -0.196641        -0.568029
 O         3.218720         0.558323        -1.604927
 C         2.761297        -1.656387        -0.189210
 H        -0.624190        -0.138514        -0.345941
 H        -0.250867         1.520974         0.333219
 H         0.053689         1.136272        -1.284128
 H         1.016421        -1.829090         1.396164
 H         1.849121         0.202473         2.588703
 H         3.568671        -0.688784         2.477521
 H         3.773207         1.935217        -0.208318
 H         3.575565        -0.136043        -2.216602
 H         2.267209        -2.313261        -0.882545
 H         3.814472        -2.029777         0.127535
