19
Iteration:  3299charge 0 multiplicity 1
 C        -0.028380         0.556569        -0.214488
 C         1.381080         0.180804         0.065759
 C         1.800597        -1.190626         0.847933
 C         2.555106        -0.346811         1.908549
 C         2.730933         0.655566         0.806958
 O         3.190174         1.975359         0.951762
 C         2.662095        -0.129005        -0.605419
 O         3.343665         0.542357        -1.628540
 C         2.845238        -1.655585        -0.362112
 H        -0.423755         1.261458         0.507000
 H        -0.073122         1.068383        -1.184233
 H        -0.886496        -0.194077        -0.259769
 H         0.942894        -1.884998         1.126256
 H         1.821665        -0.085525         2.676975
 H         3.513746        -0.847580         2.411838
 H         3.557322         2.166922         0.123171
 H         2.890468         0.857570        -2.443002
 H         2.250913        -2.182598        -1.191855
 H         3.843617        -1.978950        -0.206147
