19
Iteration:  1480
 C         0.021951         0.721425        -0.413292
 C         1.336676         0.075383         0.126423
 C         1.921305        -1.358595         0.773331
 C         2.621568        -0.529892         1.904277
 C         2.538360         0.624831         0.894153
 O         3.001145         1.929698         1.183151
 C         2.744538        -0.054320        -0.650833
 O         3.375829         0.716304        -1.628491
 C         2.875864        -1.601546        -0.467140
 H        -0.410929         0.265276        -1.312569
 H        -0.788010         0.637805         0.302651
 H         0.244618         1.858941        -0.641657
 H         1.420331        -2.303458         1.109846
 H         1.962895        -0.281701         2.751250
 H         3.596733        -0.816137         2.445600
 H         3.245365         2.330408         0.391900
 H         2.750622         0.856394        -2.252990
 H         2.584544        -2.241569        -1.416624
 H         3.967461        -1.854389        -0.151249
