19
Iteration:   765charge 0 multiplicity 1
 C         0.055574         0.648278        -0.413844
 C         1.380000         0.073286         0.041595
 C         1.842098        -1.391457         0.515572
 C         2.545583        -0.727491         1.820977
 C         2.561597         0.552815         0.898520
 O         2.896993         1.865938         1.276166
 C         2.800608         0.034441        -0.559968
 O         3.305660         0.956561        -1.439937
 C         3.105460        -1.503898        -0.446304
 H        -0.017847         1.763652        -0.138530
 H        -0.042132         0.736825        -1.581996
 H        -0.856171         0.091036        -0.189006
 H         1.214508        -2.218149         0.782731
 H         1.697452        -0.536443         2.559728
 H         3.606744        -1.164681         1.955686
 H         3.595317         2.149534         0.614793
 H         2.621119         0.970558        -2.233945
 H         2.773740        -2.070866        -1.327553
 H         3.999421        -1.791826         0.013219
