19
Iteration:  4111
 C         0.076061         0.727688        -0.227534
 C         1.342788         0.105585         0.134067
 C         1.777724        -1.145646         1.003855
 C         2.669955        -0.261914         1.914987
 C         2.646012         0.623140         0.736484
 O         3.284694         1.913486         0.668041
 C         2.588926        -0.216429        -0.582176
 O         3.225255         0.558122        -1.627889
 C         2.760167        -1.681112        -0.180112
 H        -0.675423        -0.098415        -0.437200
 H        -0.338951         1.587442         0.403978
 H         0.105537         1.182837        -1.279063
 H         1.048879        -1.853395         1.372741
 H         1.879122         0.162426         2.568837
 H         3.533562        -0.612389         2.521550
 H         3.670140         1.905709        -0.207818
 H         3.582294        -0.031208        -2.225343
 H         2.181743        -2.314618        -0.938363
 H         3.842869        -1.973912         0.075085
