19
Iteration:  4653charge 0 multiplicity 1
 C         0.076608         0.832585        -0.190913
 C         1.386546         0.236309         0.118662
 C         1.754951        -1.124843         1.153354
 C         2.740443        -0.166796         1.920237
 C         2.752622         0.705944         0.687259
 O         3.363264         2.015777         0.542543
 C         2.609763        -0.281001        -0.595279
 O         3.021535         0.072398        -1.825290
 C         2.711984        -1.644135        -0.018164
 H        -0.511719         1.021507         0.693285
 H        -0.029058         1.875048        -0.641773
 H        -0.582647         0.110837        -0.773830
 H         0.980072        -1.828118         1.401905
 H         2.355840         0.366310         2.795318
 H         3.761115        -0.644563         2.096044
 H         2.796944         2.482032        -0.039945
 H         4.017764         0.250255        -1.677938
 H         2.318000        -2.540536        -0.580155
 H         3.668981        -1.898835         0.423089
