19
Iteration:  4328
 C         0.061014         0.662010        -0.238533
 C         1.454920         0.253012         0.218739
 C         1.841908        -1.191000         1.037748
 C         2.613364        -0.257448         1.965054
 C         2.759485         0.708430         0.775289
 O         3.272168         2.026794         0.610997
 C         2.669514        -0.213221        -0.563924
 O         3.103307         0.369102        -1.720990
 C         2.608434        -1.675291        -0.256144
 H        -0.440378         1.490950         0.387638
 H         0.253369         1.148632        -1.147576
 H        -0.626983        -0.237436        -0.376339
 H         1.233429        -1.795700         1.712777
 H         1.867408         0.338718         2.621082
 H         3.598202        -0.569637         2.421526
 H         3.940721         1.844011        -0.105325
 H         3.807398        -0.340402        -2.035545
 H         1.999612        -2.216624        -0.903668
 H         3.579798        -2.117089         0.010864
