19
Iteration:  4500
 C         0.035199         0.666089        -0.173807
 C         1.481541         0.196595         0.144916
 C         1.697297        -1.060149         1.064035
 C         2.601883        -0.210668         1.976838
 C         2.767738         0.634847         0.730329
 O         3.443161         1.940071         0.441419
 C         2.725565        -0.196756        -0.544760
 O         3.066142         0.306124        -1.774449
 C         2.622339        -1.701981        -0.081880
 H        -0.082018         0.498587        -1.261645
 H        -0.577238        -0.059419         0.334599
 H        -0.278453         1.702530         0.081692
 H         0.840307        -1.536166         1.609142
 H         2.042082         0.363238         2.721472
 H         3.619206        -0.507153         2.419338
 H         2.782116         2.684714         0.394876
 H         3.968924         0.815239        -1.676072
 H         2.144016        -2.350685        -0.834540
 H         3.547775        -2.183521         0.222517
