19
Iteration:   574
 C         0.062139         0.740135        -0.494419
 C         1.386741        -0.014147        -0.031255
 C         1.936339        -1.467522         0.592183
 C         2.551868        -0.680923         1.752194
 C         2.474979         0.459101         0.924430
 O         2.808770         1.750147         1.392197
 C         2.836720         0.109547        -0.503894
 O         3.396802         1.038161        -1.430920
 C         3.058456        -1.438961        -0.540339
 H        -0.832340         0.300784        -0.099364
 H         0.179597         1.706138        -0.062064
 H        -0.159377         0.842293        -1.647780
 H         1.289394        -2.412487         0.977097
 H         1.833018        -0.679512         2.581829
 H         3.443856        -1.074304         2.146914
 H         3.082836         2.162470         0.477181
 H         2.881822         1.044158        -2.216654
 H         2.631028        -1.880820        -1.406108
 H         4.001490        -1.789653        -0.402320
