19
Iteration:   394
 C         0.114423         0.662179        -0.361805
 C         1.405974         0.050926         0.019581
 C         1.851479        -1.439313         0.426249
 C         2.532193        -0.874612         1.696452
 C         2.433813         0.515861         0.926270
 O         2.680373         1.799379         1.321099
 C         2.836392         0.126074        -0.538093
 O         3.462398         1.113093        -1.276143
 C         3.107095        -1.427456        -0.583614
 H         0.146682         1.129693        -1.407957
 H        -0.579808        -0.216884        -0.341675
 H        -0.333434         1.381688         0.249660
 H         1.241544        -2.257295         0.533932
 H         1.988156        -0.932056         2.576949
 H         3.455338        -1.330479         1.929969
 H         3.399904         2.154770         0.649812
 H         3.279222         1.035661        -2.187363
 H         3.053610        -1.946301        -1.466126
 H         4.005275        -1.655624        -0.159949
