19
Iteration:   480charge 0 multiplicity 1
 C         0.052655         0.569504        -0.440148
 C         1.379423         0.002494         0.035906
 C         1.793025        -1.452708         0.412147
 C         2.564714        -0.759913         1.706647
 C         2.532067         0.498592         0.907391
 O         2.763354         1.824949         1.384324
 C         2.874414         0.143865        -0.524986
 O         3.462132         1.046395        -1.382274
 C         3.008520        -1.371959        -0.489016
 H        -0.175969         1.626161         0.008554
 H         0.026980         0.602847        -1.599133
 H        -0.723810        -0.052411        -0.134910
 H         1.181481        -2.243874         0.476370
 H         1.955496        -0.595922         2.575370
 H         3.586989        -1.232939         2.014419
 H         3.625099         2.133175         1.253920
 H         2.915148         1.235784        -2.218371
 H         2.832520        -1.841876        -1.491658
 H         4.031768        -1.808157        -0.099136
