19
Iteration:   658charge 0 multiplicity 1
 C        -0.019817         0.597965        -0.354322
 C         1.285796         0.046978         0.042613
 C         1.956396        -1.402525         0.568654
 C         2.547188        -0.642298         1.778745
 C         2.517404         0.572532         0.842515
 O         2.813493         1.844313         1.305766
 C         2.759279         0.047644        -0.665249
 O         3.550459         0.915579        -1.285032
 C         2.986888        -1.419336        -0.611371
 H        -0.195754         0.285248        -1.399920
 H        -0.870688         0.117721         0.226396
 H        -0.025694         1.680702        -0.287512
 H         1.261822        -2.300002         0.683602
 H         1.810443        -0.579103         2.675339
 H         3.564041        -1.055377         2.032583
 H         3.650362         2.061446         0.890045
 H         3.273110         1.122287        -2.287165
 H         2.504456        -1.989070        -1.457577
 H         4.131502        -1.790596        -0.511201
