19
Iteration:  4567charge 0 multiplicity 1
 C         0.129757         0.817815        -0.322457
 C         1.341056         0.112871         0.199551
 C         1.783624        -1.092388         1.196415
 C         2.840977        -0.237964         1.853831
 C         2.689323         0.712807         0.708008
 O         3.276219         1.973965         0.583725
 C         2.632157        -0.179761        -0.515461
 O         3.052707         0.088118        -1.814398
 C         2.648231        -1.562096        -0.055539
 H         0.547181         1.829413        -0.558033
 H        -0.188616         0.238446        -1.122749
 H        -0.647839         1.076443         0.428175
 H         1.111884        -1.784521         1.692941
 H         2.417321         0.131484         2.854949
 H         3.833465        -0.782421         2.106058
 H         2.712939         2.329774        -0.135690
 H         3.866806         0.644174        -1.756950
 H         2.081066        -2.149269        -0.737754
 H         3.544139        -2.082961         0.227246
