19
Iteration:  4362charge 0 multiplicity 1
 C         0.124190         0.773705        -0.220314
 C         1.414832         0.144016         0.109918
 C         1.721165        -1.124743         1.089536
 C         2.713756        -0.228946         1.800458
 C         2.682097         0.693121         0.698235
 O         3.236449         1.925747         0.719197
 C         2.664748        -0.244200        -0.562824
 O         3.079092         0.329655        -1.819260
 C         2.699561        -1.646720        -0.036184
 H        -0.578788         0.772163         0.679856
 H         0.265053         1.790552        -0.581936
 H        -0.446007         0.311369        -1.091898
 H         1.061925        -1.819634         1.621015
 H         2.432939         0.301417         2.791541
 H         3.763059        -0.633739         2.148386
 H         3.492048         2.092592        -0.189850
 H         3.995586         0.403026        -2.003264
 H         2.435367        -2.394122        -0.715319
 H         3.603219        -1.998256         0.477157
