19
Iteration:   734charge 0 multiplicity 1
 C         0.161482         0.708737        -0.412799
 C         1.344323        -0.036972        -0.023704
 C         1.900736        -1.460678         0.626695
 C         2.485893        -0.628082         1.825640
 C         2.518677         0.450656         0.834484
 O         2.858046         1.799638         1.301713
 C         2.791709         0.072288        -0.571719
 O         3.316875         1.012838        -1.467080
 C         3.078183        -1.427586        -0.488738
 H         0.493486         1.794442        -0.528302
 H        -0.239883         0.260003        -1.399805
 H        -0.575269         0.884590         0.351558
 H         1.448672        -2.408514         0.993387
 H         1.841355        -0.520189         2.807644
 H         3.378268        -1.015791         2.432389
 H         3.369737         2.154242         0.546607
 H         2.794487         0.968793        -2.194125
 H         2.585371        -2.004278        -1.284423
 H         4.054324        -1.933869        -0.449811
