19
Iteration:  3894charge 0 multiplicity 1
 C        -0.043616         0.705377        -0.197600
 C         1.327451         0.084844         0.090641
 C         1.761871        -1.163662         0.949384
 C         2.719292        -0.293143         1.868033
 C         2.719781         0.638529         0.637750
 O         3.119700         1.998795         0.903547
 C         2.684324        -0.147418        -0.577275
 O         3.451559         0.396286        -1.669898
 C         2.685612        -1.603428        -0.272351
 H        -0.220384         1.256752        -1.132205
 H        -0.852241        -0.082591        -0.061563
 H        -0.253300         1.401768         0.553444
 H         1.171939        -1.942784         1.448013
 H         2.176778         0.126904         2.781121
 H         3.772138        -0.802550         2.090484
 H         3.321559         2.176831        -0.008082
 H         3.135411         0.636868        -2.464394
 H         2.097855        -2.399909        -0.912505
 H         3.589235        -2.033682         0.075252
