19
Iteration:  4237
 C         0.127985         0.776098        -0.201380
 C         1.462968         0.126890         0.121912
 C         1.779705        -1.242666         1.036817
 C         2.659662        -0.249271         2.012298
 C         2.705555         0.639780         0.749579
 O         3.114557         1.988903         0.605909
 C         2.802592        -0.169768        -0.565227
 O         3.173574         0.347544        -1.787435
 C         2.687996        -1.626490        -0.122218
 H         0.294994         1.640420        -0.896933
 H        -0.340137         0.086525        -0.933615
 H        -0.601746         1.144517         0.527467
 H         1.145248        -2.055205         1.477416
 H         1.977378         0.290307         2.650782
 H         3.491388        -0.651649         2.526105
 H         4.005114         1.946034         0.203813
 H         2.520265         0.867707        -2.264059
 H         1.938167        -2.169458        -0.746641
 H         3.572745        -2.229752         0.061814
