19
Iteration:  1690charge 0 multiplicity 1
 C         0.069961         0.662690        -0.407015
 C         1.411321         0.118565         0.111040
 C         1.781238        -1.342236         0.812795
 C         2.688133        -0.575059         1.945514
 C         2.598341         0.609134         0.844804
 O         2.995580         1.970016         0.934876
 C         2.803691        -0.070119        -0.544327
 O         3.273840         0.784474        -1.575083
 C         2.847093        -1.584656        -0.345859
 H        -0.561848         1.161017         0.387917
 H         0.232431         1.420532        -1.119277
 H        -0.663812        -0.163368        -0.662232
 H         0.948572        -2.042997         0.946325
 H         2.183483        -0.459136         2.821461
 H         3.667065        -0.869502         2.218006
 H         3.850213         2.062132         0.359250
 H         2.578249         0.521443        -2.277732
 H         2.546900        -2.174041        -1.260547
 H         3.837143        -2.023930        -0.073223
