19
Iteration:   462
 C         0.032099         0.600904        -0.397232
 C         1.458892         0.087903        -0.041696
 C         1.871231        -1.324037         0.463023
 C         2.479292        -0.892398         1.778384
 C         2.498456         0.495406         0.930944
 O         2.740045         1.796121         1.346680
 C         2.848027         0.096986        -0.501523
 O         3.484017         1.082493        -1.390201
 C         3.101840        -1.365944        -0.563589
 H        -0.039622         1.672942        -0.241186
 H        -0.245304         0.251418        -1.384247
 H        -0.764916         0.172978         0.282474
 H         1.174330        -2.272981         0.615640
 H         1.804889        -0.929007         2.648388
 H         3.365359        -1.374048         2.075401
 H         3.257755         2.073740         0.622411
 H         2.872743         0.882120        -2.178812
 H         2.881728        -1.822619        -1.489778
 H         3.958282        -1.768708        -0.160891
