19
Iteration:  2235charge 0 multiplicity 1
 C         0.119529         0.758067        -0.309241
 C         1.295119         0.092422         0.195464
 C         1.969561        -1.264867         0.931783
 C         2.732726        -0.417006         1.868546
 C         2.612151         0.674518         0.787347
 O         3.025914         2.033978         0.754938
 C         2.606495        -0.202334        -0.557246
 O         3.315739         0.543832        -1.574509
 C         2.706050        -1.662178        -0.262606
 H         0.270428         1.151563        -1.331609
 H        -0.759080         0.077016        -0.466146
 H        -0.059280         1.635906         0.285464
 H         1.291428        -1.974513         1.376032
 H         2.114507        -0.133331         2.802905
 H         3.812617        -0.700329         2.182079
 H         3.702841         2.068563        -0.047817
 H         2.995010         0.394069        -2.410538
 H         2.224186        -2.313933        -0.928049
 H         3.763643        -1.878535        -0.100512
