19
Iteration:   879
 C         0.030517         0.671199        -0.366579
 C         1.406613        -0.045263        -0.038620
 C         1.919945        -1.357061         0.630751
 C         2.411601        -0.647482         1.869508
 C         2.676887         0.508858         0.900485
 O         2.892854         1.884493         1.199168
 C         2.828200         0.009201        -0.536568
 O         3.337175         0.969841        -1.452779
 C         3.051643        -1.539421        -0.545445
 H        -0.734303         0.112403         0.103195
 H         0.077727         1.669909         0.019206
 H        -0.198006         0.768941        -1.474391
 H         1.134301        -2.064383         0.990179
 H         1.561560        -0.419890         2.374697
 H         3.218729        -1.002767         2.443217
 H         3.444165         2.378934         0.562348
 H         2.740891         0.901338        -2.144906
 H         2.513662        -1.982280        -1.283401
 H         3.987946        -1.913768        -0.387989
