19
Iteration:  2993charge 0 multiplicity 1
 C         0.170008         0.867959        -0.163380
 C         1.367406         0.046335         0.193495
 C         1.827323        -1.228773         0.938636
 C         2.636469        -0.304920         1.880837
 C         2.721828         0.656010         0.686158
 O         2.917909         1.954384         0.827424
 C         2.811343        -0.157292        -0.567189
 O         3.244939         0.409129        -1.727480
 C         2.771114        -1.601562        -0.286167
 H         0.467899         1.947535        -0.373695
 H        -0.179542         0.340521        -1.102483
 H        -0.669030         0.645545         0.525356
 H         1.340465        -2.068201         1.365173
 H         2.046028         0.046856         2.673078
 H         3.579305        -0.632869         2.349010
 H         3.820155         2.095160         0.509868
 H         2.646156        -0.076429        -2.443314
 H         2.279243        -2.143982        -1.130510
 H         3.719678        -1.990566        -0.070848
