19
Iteration:  4785charge 0 multiplicity 1
 C         0.156771         0.847350        -0.189088
 C         1.379318         0.100185         0.205555
 C         1.789930        -1.034651         1.198572
 C         2.739058        -0.088148         1.977536
 C         2.777624         0.714944         0.629307
 O         3.327839         1.946976         0.380950
 C         2.718196        -0.283348        -0.517309
 O         2.941760        -0.005719        -1.919346
 C         2.643458        -1.654978         0.052978
 H         0.331774         1.298813        -1.165138
 H        -0.860051         0.355784        -0.201508
 H        -0.057838         1.723139         0.445155
 H         0.965237        -1.520491         1.747237
 H         2.207658         0.552063         2.582968
 H         3.601393        -0.428590         2.516893
 H         3.051331         2.672372         0.916319
 H         3.689799         0.650824        -2.046368
 H         1.957177        -2.208571        -0.659757
 H         3.674540        -2.085189         0.253158
