19
Iteration:  3504
 C         0.007676         0.747282        -0.210247
 C         1.380193         0.121420         0.121053
 C         1.855192        -1.298299         0.822077
 C         2.650428        -0.383663         1.857822
 C         2.589232         0.623949         0.753505
 O         2.999483         1.950751         0.895827
 C         2.717552        -0.148173        -0.619853
 O         3.469361         0.625417        -1.529294
 C         2.763967        -1.650973        -0.388291
 H         0.081185         1.395009        -1.059641
 H        -0.594859        -0.094242        -0.420447
 H        -0.384110         1.274092         0.665821
 H         1.088645        -1.948600         1.256984
 H         2.013848        -0.019355         2.742453
 H         3.514962        -0.729030         2.493893
 H         3.508806         2.252548         0.058011
 H         3.030828         0.338139        -2.463683
 H         2.229184        -2.387332        -0.978636
 H         3.771063        -2.121002        -0.097974
