19
Iteration:  1427
 C         0.095362         0.675993        -0.305229
 C         1.456200         0.040168         0.074179
 C         1.897662        -1.359038         0.752682
 C         2.495290        -0.607379         1.869894
 C         2.585636         0.582108         0.837227
 O         2.978555         1.967202         1.062301
 C         2.738950        -0.051210        -0.646830
 O         3.308772         0.862664        -1.521263
 C         2.899869        -1.608892        -0.387164
 H        -0.618380        -0.136544        -0.349937
 H        -0.320728         1.405009         0.331067
 H         0.084343         1.225542        -1.272675
 H         1.150458        -2.176620         0.814022
 H         1.732736        -0.246849         2.527474
 H         3.537469        -0.827260         2.316058
 H         3.750964         2.150368         0.569671
 H         3.156447         0.635352        -2.372899
 H         2.409028        -2.026224        -1.180387
 H         3.818944        -2.020579        -0.271757
