19
Iteration:  2351charge 0 multiplicity 1
 C         0.010071         0.634948        -0.254809
 C         1.386794         0.124594         0.169876
 C         1.794259        -1.179849         0.882537
 C         2.733621        -0.313687         1.870365
 C         2.732803         0.679352         0.728317
 O         3.122401         1.979935         0.748257
 C         2.716441        -0.157257        -0.552405
 O         3.235035         0.515967        -1.599315
 C         2.754109        -1.665683        -0.169239
 H        -0.364969         1.573205         0.084198
 H         0.052102         0.745504        -1.305637
 H        -0.690431        -0.150029         0.042017
 H         0.839707        -1.696994         1.361271
 H         2.094610         0.126892         2.682750
 H         3.719320        -0.866752         2.162447
 H         3.725405         2.122533        -0.049119
 H         2.793891         0.383082        -2.366891
 H         2.273339        -2.150611        -1.073772
 H         3.632452        -2.173683         0.078924
