19
Iteration:  1253
 C         0.157519         0.609912        -0.401939
 C         1.382191        -0.041131         0.110854
 C         1.879071        -1.369352         0.654978
 C         2.664238        -0.543941         1.904209
 C         2.577651         0.588417         0.892449
 O         2.935485         1.932335         1.125726
 C         2.789439         0.045476        -0.522113
 O         3.354014         0.795516        -1.443199
 C         2.778744        -1.469130        -0.584055
 H        -0.176749         1.545185         0.091112
 H         0.339292         0.989719        -1.400400
 H        -0.748250         0.017049        -0.315310
 H         1.228586        -2.275630         0.842657
 H         1.942892        -0.416989         2.639455
 H         3.514335        -0.860896         2.399494
 H         3.060909         2.372381         0.239050
 H         2.835397         0.605592        -2.237242
 H         2.236838        -2.041851        -1.384524
 H         3.719963        -2.102604        -0.336803
