19
Iteration:  4739
 C         0.063137         0.791212        -0.332268
 C         1.388550         0.125384         0.259406
 C         1.722485        -1.003656         1.262829
 C         2.845909        -0.174534         1.902665
 C         2.734599         0.735360         0.668453
 O         3.359100         1.850012         0.254201
 C         2.630362        -0.245168        -0.475015
 O         3.071259         0.188772        -1.783313
 C         2.610531        -1.668117         0.032364
 H        -0.388319         0.114716        -1.007462
 H        -0.615091         0.887198         0.612872
 H         0.217279         1.752746        -0.845764
 H         1.048342        -1.485940         1.935872
 H         2.470245         0.219760         2.781908
 H         3.772576        -0.648179         2.131623
 H         3.135774         2.441375         1.012042
 H         3.428650         1.144511        -1.874189
 H         1.986084        -2.351107        -0.668167
 H         3.441508        -2.125960         0.629000
