19
Iteration:  3466charge 0 multiplicity 1
 C         0.102925         0.635441        -0.108904
 C         1.384449         0.131068         0.074571
 C         1.714185        -1.206687         0.761849
 C         2.551027        -0.441493         1.892497
 C         2.638207         0.617465         0.723339
 O         3.034078         1.940885         0.888880
 C         2.750617        -0.034901        -0.557888
 O         3.362385         0.603977        -1.640328
 C         2.849826        -1.587968        -0.309092
 H        -0.095665         1.227147        -1.051139
 H        -0.598801        -0.262199        -0.137069
 H        -0.280804         1.381765         0.605384
 H         0.938780        -2.025028         0.859687
 H         1.753256        -0.072921         2.569421
 H         3.589054        -0.800424         2.240156
 H         4.058857         1.976001         0.689549
 H         3.364979        -0.258503        -2.276139
 H         2.546166        -2.168511        -1.221099
 H         3.810976        -1.748244         0.118898
