19
Iteration:    78
 C         0.142802         0.499492        -0.543279
 C         1.453408         0.067403         0.009382
 C         1.892307        -1.452998         0.315861
 C         2.456786        -0.910771         1.668610
 C         2.538165         0.426683         0.994684
 O         2.727442         1.690449         1.603210
 C         2.848741         0.210264        -0.513775
 O         3.403269         1.283627        -1.226079
 C         3.063158        -1.334710        -0.704566
 H        -0.083617        -0.031126        -1.417660
 H        -0.645852         0.547444         0.197235
 H         0.249415         1.547548        -0.786907
 H         1.288128        -2.273381         0.333591
 H         1.656380        -0.940424         2.389907
 H         3.431332        -1.348911         2.046243
 H         2.916548         2.377142         0.890663
 H         3.013802         1.247414        -2.093733
 H         2.731129        -1.626308        -1.672798
 H         3.932277        -1.823604        -0.514615
