19
Iteration:   361charge 0 multiplicity 1
 C         0.101253         0.617070        -0.493217
 C         1.417836         0.017196        -0.023181
 C         1.919980        -1.491768         0.485857
 C         2.496098        -0.802178         1.822071
 C         2.485926         0.524625         0.969352
 O         2.719192         1.767152         1.427738
 C         2.869566         0.149426        -0.507219
 O         3.472191         1.096040        -1.340675
 C         3.014695        -1.357165        -0.691324
 H        -0.149137         0.449984        -1.607861
 H        -0.661207        -0.062567        -0.007730
 H        -0.088233         1.594152        -0.175778
 H         1.372391        -2.353406         0.530559
 H         1.780034        -0.718143         2.565838
 H         3.420915        -1.183415         2.124872
 H         3.443038         2.057894         0.929613
 H         2.922780         1.277052        -2.213867
 H         2.579717        -1.662905        -1.582330
 H         3.978736        -1.772137        -0.583969
