19
Iteration:  2372charge 0 multiplicity 1
 C         0.116215         0.607240        -0.365039
 C         1.383827         0.077602         0.189338
 C         1.769278        -1.200929         1.060185
 C         2.731964        -0.386468         1.946954
 C         2.647852         0.679615         0.795721
 O         3.131787         1.990726         0.682180
 C         2.765453        -0.142583        -0.521105
 O         3.259756         0.607196        -1.659331
 C         2.635419        -1.607965        -0.246867
 H        -0.113092         1.450471         0.276891
 H         0.119005         1.070903        -1.337580
 H        -0.694716        -0.088355        -0.212271
 H         1.379507        -2.145211         1.621837
 H         2.194268        -0.004125         2.903012
 H         3.854038        -0.787747         2.026587
 H         3.423067         2.122072        -0.307623
 H         2.847147         0.094257        -2.466180
 H         1.937676        -2.144726        -0.961664
 H         3.517683        -2.131000        -0.124340
