19
Iteration:  3924charge 0 multiplicity 1
 C         0.119305         0.742787        -0.158480
 C         1.383821         0.152132         0.133847
 C         1.750929        -1.215343         0.882266
 C         2.660998        -0.377569         1.856173
 C         2.682087         0.695307         0.786305
 O         3.017334         2.027437         0.758280
 C         2.755848        -0.138255        -0.523036
 O         3.365677         0.372367        -1.711127
 C         2.714665        -1.609472        -0.238930
 H         0.080505         1.712456        -0.721574
 H        -0.450286        -0.050891        -0.693634
 H        -0.304205         0.974505         0.894416
 H         1.067165        -1.945260         1.273483
 H         2.140241        -0.111486         2.774507
 H         3.623934        -0.730621         2.252665
 H         3.657689         2.063476         0.025288
 H         2.776429         0.506587        -2.552003
 H         2.199664        -2.328134        -0.979273
 H         3.598600        -2.167445         0.201356
