19
Iteration:  4552
 C         0.041306         0.811954        -0.344833
 C         1.345644         0.189687         0.273890
 C         1.833033        -1.118983         1.066355
 C         2.815531        -0.150654         1.933898
 C         2.699728         0.700243         0.684575
 O         3.337048         1.974259         0.619086
 C         2.586067        -0.229847        -0.550349
 O         3.084962         0.125869        -1.780251
 C         2.633794        -1.681878        -0.068213
 H         0.311511         1.503267        -1.083592
 H        -0.716349         0.073182        -0.921161
 H        -0.572115         1.167988         0.470297
 H         1.191928        -1.796416         1.673218
 H         2.434608         0.294900         2.830909
 H         3.902537        -0.594519         2.011161
 H         2.969718         2.726671         0.060747
 H         3.902719         0.548312        -1.654251
 H         2.031118        -2.429687        -0.688892
 H         3.656165        -2.042138         0.018936
