19
Iteration:  4313charge 0 multiplicity 1
 C         0.122653         0.658069        -0.261286
 C         1.406497         0.129654         0.196510
 C         1.770178        -1.161126         1.045078
 C         2.711337        -0.196935         1.946695
 C         2.741945         0.728177         0.691711
 O         3.271499         1.970761         0.641331
 C         2.641720        -0.180442        -0.492381
 O         3.169558         0.427668        -1.721910
 C         2.593710        -1.661261        -0.166914
 H        -0.298514         1.445473         0.341433
 H        -0.076517         0.810210        -1.369294
 H        -0.559012        -0.139732         0.057458
 H         0.930638        -1.849914         1.306788
 H         2.058899         0.109209         2.716643
 H         3.601433        -0.586560         2.333381
 H         3.848454         2.093064        -0.172272
 H         3.618044        -0.236362        -2.347308
 H         1.818341        -2.152092        -0.892729
 H         3.475276        -2.341284        -0.107990
