19
Iteration:   913
 C         0.165274         0.680693        -0.334769
 C         1.410353        -0.003855         0.016681
 C         1.851051        -1.333670         0.632452
 C         2.541344        -0.673470         1.791945
 C         2.541605         0.594968         0.881314
 O         2.808066         1.814526         1.232755
 C         2.826300         0.058539        -0.571196
 O         3.369871         0.919396        -1.537504
 C         2.999442        -1.532061        -0.424652
 H        -0.704628         0.062459        -0.276650
 H        -0.066768         1.507987         0.289540
 H         0.139346         1.048125        -1.404278
 H         1.096802        -2.108426         0.815855
 H         1.857350        -0.722454         2.555330
 H         3.450038        -1.066808         2.178523
 H         3.138667         2.257912         0.501817
 H         2.810550         1.028808        -2.270144
 H         2.780729        -2.164456        -1.217103
 H         3.952735        -1.760707        -0.091370
