19
Iteration:  3105charge 0 multiplicity 1
 C         0.053693         0.559595        -0.326986
 C         1.424703         0.141296         0.150644
 C         1.752273        -1.167851         0.944266
 C         2.694032        -0.361786         1.838848
 C         2.705460         0.646625         0.805603
 O         3.160077         1.882525         0.729798
 C         2.716611        -0.125476        -0.504589
 O         3.256708         0.643189        -1.550711
 C         2.716113        -1.590867        -0.216165
 H        -0.179872         0.433874        -1.433001
 H        -0.799362        -0.009559         0.247699
 H        -0.146713         1.653533        -0.159256
 H         0.857519        -1.876562         1.207463
 H         2.353392         0.041177         2.791876
 H         3.660391        -0.867208         2.008938
 H         3.510783         2.123367        -0.222987
 H         2.909929         0.409871        -2.369626
 H         2.125292        -2.027510        -1.014530
 H         3.619092        -2.192271        -0.121182
