19
Iteration:   683charge 0 multiplicity 1
 C         0.036166         0.584255        -0.382956
 C         1.363909         0.060433         0.010677
 C         1.871358        -1.434497         0.594285
 C         2.594359        -0.711990         1.788306
 C         2.530245         0.525234         0.866070
 O         2.742976         1.835588         1.273655
 C         2.910171         0.099946        -0.549954
 O         3.524466         0.998118        -1.387976
 C         2.907246        -1.446287        -0.535482
 H         0.018696         0.940854        -1.397889
 H        -0.779869        -0.075360        -0.251963
 H        -0.036320         1.527966         0.256216
 H         0.990497        -2.199655         0.816100
 H         2.031433        -0.575151         2.754860
 H         3.573191        -1.120234         1.923068
 H         3.225906         2.287073         0.490321
 H         3.076356         0.920527        -2.288658
 H         2.466937        -1.842556        -1.470353
 H         3.919978        -2.005897        -0.379810
