19
Iteration:  2154
 C         0.018614         0.613644        -0.293748
 C         1.357940         0.074220         0.141206
 C         1.845640        -1.263827         0.894174
 C         2.575316        -0.355954         1.861165
 C         2.650489         0.650159         0.755849
 O         3.198948         1.919862         0.911194
 C         2.735879        -0.097045        -0.560313
 O         3.224345         0.539976        -1.688861
 C         2.832576        -1.478961        -0.203572
 H        -0.472681        -0.120246        -0.932318
 H        -0.463114         0.887861         0.641252
 H         0.023956         1.669920        -0.742020
 H         1.133045        -2.048734         1.282807
 H         1.981289         0.128587         2.549018
 H         3.505439        -0.600558         2.295669
 H         3.605123         2.116400        -0.051292
 H         3.075110         0.243112        -2.522906
 H         2.232875        -1.893447        -1.089318
 H         3.739364        -2.133448        -0.027816
