19
Iteration:  1276
 C         0.125960         0.650046        -0.401764
 C         1.444644         0.054456         0.090686
 C         1.828551        -1.404016         0.747701
 C         2.572714        -0.517041         1.881050
 C         2.668904         0.566890         0.872822
 O         2.882162         1.900988         1.171866
 C         2.822687        -0.014281        -0.643699
 O         3.328374         0.879110        -1.526320
 C         2.868865        -1.572410        -0.467863
 H        -0.322532         1.422341         0.277561
 H         0.235851         1.234171        -1.331214
 H        -0.636122        -0.090549        -0.473343
 H         1.192922        -2.278743         0.972790
 H         1.987833        -0.447654         2.722924
 H         3.464453        -0.964808         2.140787
 H         3.379701         2.313720         0.436066
 H         2.637465         0.877146        -2.267816
 H         2.223201        -2.150928        -1.212898
 H         3.810887        -2.237538        -0.432916
