19
Iteration:  4383charge 0 multiplicity 1
 C         0.101494         0.857476        -0.244232
 C         1.410010         0.139125         0.143433
 C         1.802826        -1.139808         1.005211
 C         2.725801        -0.237209         1.944386
 C         2.717415         0.663652         0.629778
 O         3.236503         2.026661         0.707805
 C         2.631675        -0.284485        -0.582000
 O         3.059976         0.268587        -1.809680
 C         2.725739        -1.749441        -0.075572
 H        -0.813395         0.560862         0.401060
 H         0.271968         1.904202        -0.107466
 H        -0.298180         0.784880        -1.326853
 H         1.142654        -1.696313         1.663995
 H         2.351740         0.280826         2.921110
 H         3.742692        -0.569226         2.323587
 H         2.814781         2.571953        -0.031583
 H         4.100737         0.443620        -1.616009
 H         2.204129        -2.465116        -0.639513
 H         3.682444        -2.229562         0.265111
