19
Iteration:   641
 C         0.031932         0.495264        -0.336183
 C         1.385554         0.006803        -0.010778
 C         1.808139        -1.396185         0.524113
 C         2.532736        -0.706791         1.719341
 C         2.505378         0.546628         0.924528
 O         2.847175         1.855162         1.234419
 C         2.783901         0.097361        -0.520238
 O         3.548532         1.021948        -1.344455
 C         2.958575        -1.404216        -0.554596
 H        -0.521665         0.058303        -1.175101
 H        -0.589781         0.507440         0.529929
 H         0.149047         1.574234        -0.677712
 H         1.144483        -2.284914         0.684658
 H         1.877833        -0.594969         2.549103
 H         3.446954        -1.028502         2.187315
 H         3.691310         2.008659         0.854322
 H         3.142603         0.950457        -2.296427
 H         2.725534        -1.800048        -1.524586
 H         3.853979        -1.766513        -0.214247
