19
Iteration:  2972
 C         0.123443         0.850298        -0.185048
 C         1.380052         0.074670         0.071632
 C         1.847898        -1.297369         0.981412
 C         2.747239        -0.404932         1.887997
 C         2.675967         0.699789         0.774004
 O         2.944452         2.060898         0.749875
 C         2.610304        -0.191464        -0.645960
 O         3.331933         0.512265        -1.693594
 C         2.755923        -1.747374        -0.178157
 H         0.414043         1.917536         0.071104
 H        -0.199734         0.817747        -1.286773
 H        -0.710239         0.354576         0.345352
 H         1.019418        -1.905924         1.355611
 H         2.327609        -0.022087         2.781162
 H         3.737987        -0.759439         2.183183
 H         3.859759         2.226992         0.570902
 H         2.896420         0.195015        -2.521181
 H         2.141667        -2.358738        -0.823302
 H         3.723384        -2.124997         0.038745
