19
Iteration:  2354
 C         0.013097         0.646666        -0.265207
 C         1.372942         0.112458         0.172404
 C         1.784364        -1.212757         0.918269
 C         2.735586        -0.317478         1.863293
 C         2.742399         0.682297         0.726433
 O         3.115385         1.975852         0.734523
 C         2.755102        -0.143061        -0.540165
 O         3.229433         0.527960        -1.587591
 C         2.743209        -1.645429        -0.172110
 H        -0.419217         1.576042         0.114120
 H         0.124697         0.734339        -1.352931
 H        -0.689748        -0.192808         0.030572
 H         0.844544        -1.638683         1.277263
 H         2.250799         0.106793         2.672963
 H         3.591655        -0.852573         2.141696
 H         3.700271         2.088730        -0.103893
 H         2.761015         0.318006        -2.465878
 H         2.217303        -2.061101        -1.037347
 H         3.672742        -2.294478         0.034610
