19
Iteration:  4074
 C        -0.009467         0.657114        -0.335135
 C         1.291153         0.085306         0.145628
 C         1.772705        -1.117656         0.966496
 C         2.690550        -0.356210         1.987445
 C         2.625758         0.674754         0.761866
 O         3.339017         1.915825         0.688925
 C         2.672414        -0.089605        -0.528592
 O         3.239098         0.523257        -1.682800
 C         2.763896        -1.605252        -0.194153
 H        -0.769726         0.109322         0.227327
 H        -0.151152         1.628064        -0.027325
 H        -0.118207         0.514750        -1.411754
 H         0.876962        -1.586158         1.415317
 H         2.173744         0.057269         2.914789
 H         3.686859        -0.855507         2.292570
 H         3.857927         1.886469        -0.103603
 H         2.929063        -0.046909        -2.308326
 H         2.290470        -2.204670        -0.924515
 H         3.622686        -2.189383         0.272571
