19
Iteration:  3739
 C         0.055211         0.728374        -0.238283
 C         1.332694         0.072272         0.144564
 C         1.767127        -1.278382         0.895875
 C         2.653218        -0.332518         1.841376
 C         2.688361         0.661409         0.739019
 O         3.083707         1.970841         0.924028
 C         2.852466        -0.092243        -0.570673
 O         3.318267         0.506745        -1.727422
 C         2.738705        -1.623660        -0.260728
 H        -0.792753         0.125335         0.110685
 H        -0.134995         1.676171         0.256511
 H        -0.188499         0.905285        -1.238647
 H         1.211960        -2.097698         1.308272
 H         2.005720         0.000575         2.640229
 H         3.451307        -0.716241         2.523718
 H         3.735901         2.386969         0.272003
 H         2.804020         0.146135        -2.460500
 H         2.174951        -2.185244        -1.108021
 H         3.581230        -2.190332         0.026908
