19
Iteration:   473
 C         0.033490         0.572989        -0.433924
 C         1.357250         0.060966         0.031789
 C         1.802238        -1.408454         0.477486
 C         2.506061        -0.824656         1.695646
 C         2.557853         0.507781         0.938224
 O         2.745465         1.784446         1.349248
 C         2.915515         0.155283        -0.508188
 O         3.462526         1.059520        -1.406908
 C         3.088311        -1.384012        -0.484370
 H        -0.088899         1.614463        -0.153777
 H        -0.159275         0.589922        -1.506697
 H        -0.744930        -0.047477         0.072975
 H         1.044470        -2.292992         0.357844
 H         1.971844        -0.790952         2.653613
 H         3.461910        -1.251767         1.796211
 H         3.565714         2.212610         0.986651
 H         2.960294         1.135612        -2.167119
 H         2.862071        -1.758556        -1.445335
 H         3.994119        -1.749561        -0.156694
