19
Iteration:  2385
 C         0.149382         0.669814        -0.359826
 C         1.393232         0.077710         0.226963
 C         1.917452        -1.229480         0.998240
 C         2.779713        -0.307829         1.957170
 C         2.619378         0.690191         0.839514
 O         3.123526         1.982394         0.702890
 C         2.614979        -0.155325        -0.583934
 O         3.237038         0.559583        -1.634216
 C         2.638392        -1.663545        -0.245013
 H        -0.317545         1.432921         0.203577
 H         0.449589         1.009113        -1.313422
 H        -0.602222        -0.110119        -0.679922
 H         1.022191        -1.787904         1.452762
 H         2.210893        -0.140680         2.859009
 H         3.770610        -0.752843         2.345078
 H         3.233824         2.087633        -0.209943
 H         2.993383         0.349866        -2.555282
 H         1.940874        -2.160229        -0.962689
 H         3.509689        -2.258824        -0.137207
