19
Iteration:   632charge 0 multiplicity 1
 C         0.044010         0.548007        -0.348625
 C         1.348768         0.000892        -0.026590
 C         1.796668        -1.391961         0.480962
 C         2.509131        -0.735582         1.806712
 C         2.551116         0.544642         0.911764
 O         2.839231         1.847017         1.218992
 C         2.901716         0.137664        -0.535417
 O         3.493704         1.050624        -1.350640
 C         2.957624        -1.424152        -0.502122
 H        -0.482843        -0.299997        -0.904919
 H        -0.504964         0.541147         0.618272
 H         0.012481         1.528621        -0.829439
 H         1.160178        -2.168647         0.591835
 H         1.751018        -0.762023         2.532402
 H         3.508743        -1.231866         2.050523
 H         3.604263         2.018541         0.711531
 H         3.138091         0.938314        -2.341641
 H         2.683312        -1.828918        -1.483362
 H         3.821228        -1.921260        -0.167485
