19
Iteration:  4088
 C        -0.058139         0.688071        -0.296354
 C         1.338922         0.142591         0.158381
 C         1.728714        -1.247415         0.989308
 C         2.641183        -0.306446         1.906143
 C         2.677152         0.694065         0.824586
 O         3.350929         1.902726         0.609920
 C         2.681738        -0.138102        -0.499806
 O         3.209180         0.521935        -1.631065
 C         2.767120        -1.566979        -0.154836
 H        -0.981617         0.053378        -0.127138
 H        -0.256668         1.728205         0.030973
 H        -0.072541         0.805063        -1.450695
 H         1.267064        -2.164828         1.326175
 H         2.007010        -0.011908         2.788661
 H         3.610718        -0.689507         2.303308
 H         4.001473         1.654790        -0.120936
 H         3.321028        -0.100878        -2.486690
 H         2.268023        -2.130313        -0.975079
 H         3.881234        -1.808383         0.015321
