19
Iteration:   853
 C         0.122310         0.580156        -0.336605
 C         1.370147         0.018334         0.064630
 C         1.736572        -1.379094         0.596710
 C         2.542345        -0.708608         1.796919
 C         2.466660         0.559732         0.867404
 O         2.925700         1.826384         1.142124
 C         2.814756         0.053893        -0.530227
 O         3.423348         0.976007        -1.406097
 C         2.961902        -1.387059        -0.471078
 H        -0.684362         0.174700         0.377511
 H         0.186908         1.716756        -0.621744
 H        -0.077016         0.113410        -1.301963
 H         1.116276        -2.278510         0.784030
 H         1.930703        -0.422836         2.773980
 H         3.687076        -1.042247         1.756984
 H         3.523525         2.334862         0.492779
 H         3.084462         0.772655        -2.295071
 H         2.788410        -2.057557        -1.391421
 H         4.003928        -1.674662        -0.092855
