19
Iteration:  4041
 C         0.078663         0.663059        -0.325582
 C         1.436817         0.130898         0.173709
 C         1.786850        -1.158622         0.992840
 C         2.724943        -0.279348         1.873067
 C         2.758122         0.699449         0.670277
 O         3.185972         1.999168         0.900605
 C         2.736786        -0.151056        -0.593009
 O         3.260079         0.429123        -1.709229
 C         2.595081        -1.755009        -0.228540
 H        -0.636476         0.616965         0.501218
 H        -0.018204         1.637566        -0.730013
 H        -0.418588        -0.025840        -1.061994
 H         0.953449        -1.668472         1.519259
 H         2.103116         0.204660         2.685148
 H         3.657807        -0.664447         2.449609
 H         3.277543         2.498879         0.043669
 H         2.461286         0.658900        -2.321480
 H         1.964610        -2.215049        -0.947530
 H         3.453401        -2.377985         0.137925
