19
Iteration:  1159charge 0 multiplicity 1
 C         0.171660         0.599491        -0.245084
 C         1.394684         0.010352         0.076142
 C         1.761669        -1.326837         0.649295
 C         2.456146        -0.651259         1.844769
 C         2.587359         0.571808         0.846802
 O         2.924717         1.938445         1.152377
 C         2.800169        -0.026466        -0.560622
 O         3.427936         0.852348        -1.540307
 C         2.957457        -1.482290        -0.508640
 H         0.172405         1.527554        -0.877772
 H        -0.384986        -0.117733        -0.951971
 H        -0.362324         0.840827         0.653889
 H         1.039242        -2.069636         0.827245
 H         1.785680        -0.345375         2.755534
 H         3.360661        -1.165067         2.309764
 H         3.145648         2.337041         0.260650
 H         2.785352         1.079859        -2.313617
 H         2.637794        -2.042941        -1.393598
 H         3.959395        -1.716757        -0.189574
