19
Iteration:  4724
 C         0.091474         0.697116        -0.242039
 C         1.398088         0.249208         0.286427
 C         1.726444        -1.053169         1.158740
 C         2.808103        -0.178509         1.934338
 C         2.728000         0.723302         0.690848
 O         3.385762         1.921316         0.252784
 C         2.664533        -0.247971        -0.528965
 O         3.082089         0.171527        -1.759725
 C         2.525828        -1.654794         0.058919
 H        -0.485547        -0.226051        -0.632336
 H        -0.532536         1.197074         0.486185
 H         0.393789         1.321087        -1.147945
 H         0.955781        -1.704638         1.665904
 H         2.443715         0.401611         2.921452
 H         3.783187        -0.761366         1.984625
 H         3.039116         2.745668         0.552030
 H         3.566119         0.903456        -1.496896
 H         1.913633        -2.261910        -0.588322
 H         3.457483        -2.222442         0.136411
