19
Iteration:  1822charge 0 multiplicity 1
 C         0.170113         0.633429        -0.270733
 C         1.427344         0.002886         0.174984
 C         1.819559        -1.239071         0.812453
 C         2.633907        -0.513160         1.827883
 C         2.652819         0.607553         0.766867
 O         2.908031         2.019055         0.881175
 C         2.767866        -0.110711        -0.601371
 O         3.324116         0.720670        -1.551492
 C         2.764194        -1.610448        -0.318146
 H        -0.582008        -0.026004        -0.794242
 H        -0.404104         1.031247         0.532943
 H         0.568005         1.572361        -0.854820
 H         0.983582        -1.873156         1.273202
 H         2.087262        -0.025172         2.655980
 H         3.532659        -1.076025         2.251005
 H         3.764428         2.154046         0.584635
 H         2.823102         0.666084        -2.310614
 H         2.296224        -2.158337        -1.124646
 H         3.711641        -2.028469        -0.097478
