19
Iteration:  1928charge 0 multiplicity 1
 C         0.088105         0.631296        -0.336405
 C         1.362547         0.064114         0.180518
 C         1.780942        -1.299471         0.884281
 C         2.645098        -0.506390         1.827333
 C         2.605983         0.673269         0.815333
 O         3.111449         1.948996         0.840998
 C         2.681521        -0.064029        -0.543214
 O         3.295529         0.684825        -1.563550
 C         2.841051        -1.575628        -0.293647
 H         0.490048         1.562896        -0.836772
 H        -0.502910        -0.112325        -1.008911
 H        -0.592033         0.902965         0.486592
 H         1.067763        -1.951801         1.429919
 H         1.946886        -0.179569         2.694678
 H         3.607846        -0.809340         2.143254
 H         3.564982         2.285982         0.024567
 H         2.929546         0.423647        -2.347109
 H         2.320154        -2.054069        -1.234556
 H         3.920659        -1.970108        -0.101763
