19
Iteration:  3562
 C         0.218008         0.722745        -0.354623
 C         1.409534         0.079571         0.110439
 C         1.798020        -1.255646         0.841736
 C         2.639505        -0.374263         1.943914
 C         2.719204         0.600169         0.787944
 O         3.033306         1.953182         0.892825
 C         2.703164        -0.163333        -0.552630
 O         3.167737         0.629783        -1.587133
 C         2.806878        -1.618600        -0.334254
 H         0.307169         1.827274        -0.386403
 H         0.029424         0.429683        -1.428505
 H        -0.737800         0.435797         0.189125
 H         0.971003        -1.934253         1.319029
 H         1.932707        -0.055099         2.669736
 H         3.555396        -0.892113         2.233188
 H         3.825311         2.287525         0.578432
 H         2.718444         0.422108        -2.349238
 H         2.211952        -2.425687        -0.952541
 H         3.763681        -1.993820         0.021147
