19
Iteration:   589
 C         0.155936         0.663948        -0.388653
 C         1.349263        -0.062594        -0.020627
 C         1.930414        -1.480774         0.531408
 C         2.439575        -0.694363         1.821452
 C         2.506419         0.562124         0.824940
 O         2.856923         1.767185         1.336445
 C         2.825046         0.045994        -0.584826
 O         3.413561         1.030326        -1.359348
 C         3.009211        -1.383378        -0.542401
 H        -0.810941         0.086210        -0.250508
 H        -0.076959         1.586813         0.219906
 H         0.210126         0.850754        -1.437263
 H         1.441601        -2.327786         0.508758
 H         1.728003        -0.454988         2.601290
 H         3.475815        -0.941939         2.294611
 H         2.986409         2.515124         0.746712
 H         2.868506         1.109720        -2.140024
 H         2.566060        -1.802798        -1.509692
 H         4.021205        -1.877572        -0.249728
