19
Iteration:  2919charge 0 multiplicity 1
 C         0.025433         0.650154        -0.216607
 C         1.383512         0.150206         0.227025
 C         1.866473        -1.210082         0.955613
 C         2.646790        -0.345724         1.962153
 C         2.629106         0.708327         0.796249
 O         3.202673         2.032475         0.745921
 C         2.671928        -0.204811        -0.615330
 O         3.332366         0.487368        -1.699783
 C         2.683879        -1.637289        -0.344880
 H        -0.124861         1.341800         0.625348
 H         0.089214         1.135288        -1.211059
 H        -0.756846        -0.093051        -0.150479
 H         1.111015        -1.913731         1.465779
 H         1.973995         0.019740         2.767234
 H         3.595556        -0.648244         2.481453
 H         3.368904         2.092312        -0.155919
 H         2.891580         0.329367        -2.625828
 H         2.074840        -2.322390        -0.893759
 H         3.666051        -2.269306        -0.122200
