19
Iteration:  4533
 C         0.061940         0.705972        -0.231190
 C         1.382762         0.168815         0.099992
 C         1.778410        -1.064510         1.178131
 C         2.737070        -0.161963         1.881459
 C         2.739064         0.718152         0.674024
 O         3.409733         1.950860         0.637241
 C         2.656726        -0.289086        -0.596033
 O         3.092759         0.279779        -1.804940
 C         2.592074        -1.732932        -0.066507
 H         0.026303         1.021413        -1.287147
 H        -0.679670        -0.064665        -0.333615
 H        -0.448914         1.422950         0.399718
 H         0.986422        -1.560879         1.783616
 H         2.195428         0.447807         2.636358
 H         3.810620        -0.378233         2.262444
 H         2.715883         2.511270         0.172141
 H         3.897524         0.681732        -1.698756
 H         1.976395        -2.342131        -0.729673
 H         3.438425        -2.261243         0.276741
