19
Iteration:  1840
 C         0.109368         0.729168        -0.321626
 C         1.405263         0.104121         0.104886
 C         1.760422        -1.336135         0.819454
 C         2.675394        -0.528951         1.877444
 C         2.640279         0.657667         0.872831
 O         2.931192         1.975616         0.911155
 C         2.783744        -0.064160        -0.548944
 O         3.324492         0.619999        -1.675896
 C         2.839039        -1.563687        -0.278806
 H        -0.347740         0.067374        -1.060221
 H        -0.650240         0.654958         0.496715
 H         0.076541         1.755122        -0.562284
 H         1.118994        -2.118408         1.085455
 H         2.237723        -0.461169         2.958364
 H         3.742359        -0.826090         2.030287
 H         3.655338         2.240084         0.420051
 H         2.654987         0.682817        -2.297452
 H         2.405936        -2.135269        -1.156016
 H         3.778909        -2.046751         0.111442
