19
Iteration:  2586charge 0 multiplicity 1
 C         0.087731         0.716813        -0.267563
 C         1.418982         0.169868         0.083794
 C         1.776006        -1.227523         1.040652
 C         2.695795        -0.279663         1.912560
 C         2.656724         0.702540         0.735234
 O         3.235182         1.975714         0.810333
 C         2.744540        -0.177379        -0.565255
 O         3.099385         0.377437        -1.837737
 C         2.812377        -1.614304        -0.069309
 H        -0.282260         0.456189        -1.269981
 H        -0.554210         0.298897         0.515135
 H        -0.048604         1.808145        -0.314587
 H         0.879373        -1.722434         1.434805
 H         2.006983         0.065339         2.665285
 H         3.645751        -0.880965         2.211646
 H         3.582222         2.103852        -0.097101
 H         2.319335         0.261520        -2.415648
 H         2.303990        -2.180151        -0.789529
 H         3.822552        -2.032416         0.146125
