19
Iteration:  1069
 C         0.165945         0.624050        -0.370809
 C         1.474901         0.042161         0.025941
 C         1.860444        -1.320157         0.656285
 C         2.532015        -0.677226         1.807715
 C         2.535071         0.559664         0.883475
 O         2.879506         1.897698         1.184919
 C         2.840946         0.025333        -0.578930
 O         3.322902         0.940091        -1.526123
 C         2.891403        -1.539491        -0.371512
 H         0.030052         0.839468        -1.475065
 H        -0.604339        -0.172151        -0.276117
 H         0.042465         1.490636         0.222827
 H         1.056780        -2.086661         0.760497
 H         1.968674        -0.501666         2.810536
 H         3.495339        -1.081782         2.168103
 H         3.597859         2.112541         0.558015
 H         2.672076         0.815679        -2.298614
 H         2.429088        -1.972757        -1.274295
 H         3.791201        -2.094304        -0.255289
