19
Iteration:  4424
 C         0.193293         0.831213        -0.232581
 C         1.477651         0.143797         0.236766
 C         1.746749        -1.126316         1.089269
 C         2.745139        -0.228515         1.963077
 C         2.777033         0.675541         0.761665
 O         3.130173         2.036736         0.479085
 C         2.711103        -0.218135        -0.538162
 O         3.129497         0.186197        -1.817223
 C         2.595822        -1.721162        -0.166463
 H        -0.701017         0.147921        -0.384448
 H        -0.015254         1.579504         0.514099
 H         0.356890         1.205130        -1.254090
 H         1.039109        -1.870684         1.517460
 H         2.181795         0.209859         2.790727
 H         3.598685        -0.732361         2.266301
 H         2.679627         2.477340         1.189569
 H         3.518808         0.999989        -1.718295
 H         2.024674        -2.266857        -0.980449
 H         3.529637        -2.292193         0.176607
