19
Iteration:  2938
 C         0.056359         0.732390        -0.193137
 C         1.395876         0.055857         0.162025
 C         1.766301        -1.234414         0.965303
 C         2.744379        -0.382780         1.856696
 C         2.760882         0.626087         0.696982
 O         3.035373         1.999761         0.668847
 C         2.684085        -0.063273        -0.504990
 O         3.359785         0.483842        -1.600832
 C         2.669722        -1.610227        -0.205650
 H        -0.283660         1.671851         0.407433
 H         0.099549         0.905707        -1.302452
 H        -0.813356         0.076220         0.078317
 H         1.109139        -1.960381         1.298914
 H         2.235026         0.052896         2.651450
 H         3.685408        -0.823109         2.192436
 H         3.674603         2.136033         0.013381
 H         2.687520         0.264126        -2.395792
 H         2.125833        -2.052992        -1.055795
 H         3.558300        -2.176549        -0.209536
