19
Iteration:  1234
 C         0.029939         0.648056        -0.436399
 C         1.386082         0.106054         0.118349
 C         1.826953        -1.362428         0.759686
 C         2.622856        -0.649061         1.779820
 C         2.596819         0.570280         0.876841
 O         2.919661         1.874140         1.103780
 C         2.800156        -0.020935        -0.486445
 O         3.357260         0.898060        -1.488442
 C         2.920985        -1.536539        -0.436932
 H        -0.382260         1.629412         0.020861
 H         0.056874         0.919556        -1.561177
 H        -0.704516        -0.032990        -0.113027
 H         1.134036        -2.100836         1.072075
 H         2.187067        -0.409443         2.869388
 H         3.688288        -1.099487         1.980039
 H         3.251057         2.188994         0.175532
 H         3.125180         0.602968        -2.450069
 H         2.434406        -1.816976        -1.406445
 H         3.899721        -1.980753        -0.419502
