19
Iteration:  1514
 C         0.169229         0.635559        -0.360234
 C         1.403690         0.047318         0.095284
 C         1.743663        -1.355010         0.794807
 C         2.661215        -0.594030         1.834871
 C         2.613835         0.591538         0.817850
 O         2.897692         1.966634         1.037848
 C         2.812505        -0.030264        -0.533050
 O         3.367261         0.794344        -1.547291
 C         2.758933        -1.523810        -0.391307
 H         0.051601         0.653571        -1.451771
 H        -0.556106         0.035894         0.098507
 H         0.000434         1.694035         0.095593
 H         1.186034        -2.218639         1.124486
 H         2.201414        -0.195085         2.705712
 H         3.718103        -1.042224         2.013539
 H         3.587137         2.109501         0.351629
 H         2.706472         0.831923        -2.326416
 H         2.479062        -1.968856        -1.430783
 H         3.752580        -2.010683        -0.024758
