19
Iteration:  2964
 C         0.112670         0.860926        -0.169688
 C         1.397823         0.083540         0.087149
 C         1.815039        -1.199430         0.970379
 C         2.756683        -0.371377         1.920361
 C         2.631123         0.679378         0.759251
 O         2.941212         2.029914         0.719385
 C         2.696011        -0.226925        -0.643793
 O         3.335725         0.538114        -1.667163
 C         2.707426        -1.761770        -0.205245
 H         0.010019         1.892669         0.164537
 H         0.012493         0.718604        -1.256301
 H        -0.707835         0.317889         0.289977
 H         1.055396        -2.001690         1.432660
 H         2.471349        -0.290372         3.024914
 H         3.793483        -0.799069         1.898063
 H         3.818989         2.050299         0.469744
 H         2.888327         0.249435        -2.560000
 H         2.349807        -2.517619        -0.878469
 H         3.796095        -2.159848         0.044769
