19
Iteration:  2831charge 0 multiplicity 1
 C         0.133015         0.684432        -0.351893
 C         1.364663         0.018178         0.246592
 C         1.846235        -1.242570         1.021119
 C         2.703352        -0.334430         1.919345
 C         2.753206         0.666901         0.764585
 O         3.169662         2.057140         0.691491
 C         2.704719        -0.174663        -0.546803
 O         3.183055         0.487570        -1.632114
 C         2.630359        -1.615715        -0.249625
 H        -0.864341         0.309193        -0.095195
 H         0.118597         1.778658        -0.122766
 H         0.192041         0.680423        -1.427821
 H         1.222234        -1.979517         1.596439
 H         2.162653         0.054045         2.825393
 H         3.749288        -0.661611         2.305705
 H         3.537305         2.207264        -0.217469
 H         2.390569         0.601229        -2.331583
 H         2.005429        -2.094445        -1.002065
 H         3.547754        -2.323544        -0.026082
