19
Iteration:  2279charge 0 multiplicity 1
 C         0.151958         0.720273        -0.171930
 C         1.405788         0.113147         0.083048
 C         1.772422        -1.210204         0.921726
 C         2.642122        -0.390139         1.921219
 C         2.672359         0.696616         0.776313
 O         3.028532         2.002092         0.772269
 C         2.742549        -0.172732        -0.632787
 O         3.271093         0.549563        -1.711583
 C         2.798871        -1.678374        -0.178529
 H         0.314641         1.766496        -0.566708
 H        -0.455298         0.131303        -0.997744
 H        -0.393602         0.686102         0.848105
 H         1.149266        -1.959159         1.341575
 H         1.894600        -0.119964         2.812190
 H         3.648860        -0.844135         2.312313
 H         3.328033         2.183320        -0.205148
 H         2.823714         0.312694        -2.457497
 H         2.268521        -2.336865        -0.857090
 H         3.723565        -2.269355         0.257835
