19
Iteration:  3843
 C         0.076739         0.673740        -0.319505
 C         1.364201         0.099567         0.094684
 C         1.737881        -1.250427         0.970025
 C         2.609833        -0.464186         1.981135
 C         2.787219         0.625788         0.747446
 O         3.228048         1.939541         0.704874
 C         2.729207        -0.075135        -0.517511
 O         3.147278         0.631933        -1.634248
 C         2.760879        -1.561546        -0.186436
 H        -0.011491         0.502683        -1.407620
 H        -0.798572         0.238577         0.206095
 H        -0.072107         1.818621        -0.182784
 H         0.888271        -1.943563         1.282518
 H         1.883230        -0.051686         2.658904
 H         3.514584        -0.828981         2.383016
 H         3.867480         1.975143        -0.040579
 H         3.340579        -0.006506        -2.446779
 H         2.172005        -2.044860        -0.907370
 H         3.747907        -2.056739         0.179568
