19
Iteration:  2286
 C         0.119545         0.707135        -0.153592
 C         1.403380         0.147576         0.064459
 C         1.773356        -1.225791         0.908641
 C         2.596765        -0.396899         1.923108
 C         2.702454         0.679778         0.719865
 O         3.071709         2.050434         0.787784
 C         2.684538        -0.180041        -0.589569
 O         3.273083         0.475999        -1.692385
 C         2.859481        -1.674258        -0.174410
 H         0.139027         1.778300        -0.327673
 H        -0.257538         0.232713        -1.050254
 H        -0.473628         0.567295         0.784906
 H         1.063595        -2.051465         1.275870
 H         2.024803        -0.001738         2.674147
 H         3.472657        -0.745963         2.363764
 H         3.331878         2.319325        -0.064677
 H         2.634088         0.431277        -2.464199
 H         2.363544        -2.179159        -1.067620
 H         3.841597        -2.148517         0.057510
