19
Iteration:  3291
 C        -0.074482         0.592674        -0.203407
 C         1.409150         0.154746         0.111045
 C         1.850789        -1.195654         0.829805
 C         2.541710        -0.391807         1.863825
 C         2.682732         0.673105         0.843739
 O         3.175822         1.980296         0.922491
 C         2.665475        -0.174840        -0.614342
 O         3.409302         0.576511        -1.664020
 C         2.800886        -1.624835        -0.339001
 H        -0.456539         1.242072         0.568013
 H        -0.097856         1.223088        -1.091277
 H        -0.734580        -0.220714        -0.391218
 H         1.130486        -2.009845         1.228688
 H         1.844535        -0.011754         2.594344
 H         3.422824        -0.728518         2.513642
 H         3.627184         2.153801         0.142750
 H         2.765446         0.815926        -2.324951
 H         2.147240        -2.354651        -0.933468
 H         3.813437        -2.102171        -0.248541
