19
Iteration:  3213
 C         0.156664         0.846260        -0.229783
 C         1.352046        -0.034907         0.101857
 C         1.862580        -1.223652         0.933844
 C         2.684831        -0.420675         1.955556
 C         2.616391         0.625380         0.713237
 O         2.943702         1.897340         0.810682
 C         2.756772        -0.154273        -0.569100
 O         3.280429         0.575788        -1.618882
 C         2.778021        -1.557670        -0.281493
 H        -0.736816         0.434251         0.133812
 H         0.349348         1.789161         0.250886
 H         0.239082         0.956929        -1.267568
 H         1.241706        -2.135936         1.265424
 H         2.087296        -0.018651         2.713831
 H         3.733795        -0.720305         2.177119
 H         3.319723         2.384194        -0.033299
 H         3.052453         0.230032        -2.458134
 H         2.197386        -2.122494        -1.137232
 H         3.763614        -2.022597        -0.106901
