19
Iteration:  4719charge 0 multiplicity 1
 C         0.040308         0.700425        -0.243495
 C         1.452065         0.207958         0.300681
 C         1.758938        -1.045399         1.149287
 C         2.805716        -0.154384         1.957019
 C         2.756057         0.765638         0.685657
 O         3.407615         1.940787         0.271990
 C         2.619910        -0.290431        -0.542920
 O         3.082717         0.155198        -1.720073
 C         2.512626        -1.648970        -0.022146
 H        -0.460646        -0.225333        -0.476623
 H        -0.567801         1.306002         0.469115
 H         0.393387         1.055322        -1.206220
 H         0.919925        -1.620550         1.494771
 H         2.438820         0.374120         2.786458
 H         3.705162        -0.748151         2.113321
 H         2.820470         2.737400         0.509642
 H         3.743245         0.972923        -1.519418
 H         1.727581        -2.256210        -0.553760
 H         3.420204        -2.248776         0.213556
