19
Iteration:  1538
 C         0.095597         0.674368        -0.305900
 C         1.460448         0.125852         0.073912
 C         1.843267        -1.284546         0.709247
 C         2.566130        -0.618265         1.912171
 C         2.700790         0.615745         0.874154
 O         2.888553         1.940605         0.935488
 C         2.751094        -0.003984        -0.550249
 O         3.302346         0.844329        -1.487330
 C         2.849087        -1.718056        -0.389596
 H         0.158778         0.840792        -1.385810
 H        -0.614899        -0.096488        -0.107009
 H        -0.275768         1.556126         0.238706
 H         1.182942        -2.066762         0.969774
 H         1.974439        -0.280179         2.745935
 H         3.622818        -1.091630         2.120849
 H         3.813748         2.142066         0.462577
 H         3.027444         0.539202        -2.476298
 H         2.356406        -2.112517        -1.254122
 H         3.824846        -2.157540        -0.266598
