19
Iteration:  4106
 C         0.067742         0.727938        -0.263480
 C         1.303604         0.141637         0.162284
 C         1.852845        -1.199914         1.001082
 C         2.608630        -0.287271         1.918066
 C         2.656575         0.626520         0.684616
 O         3.307865         1.910331         0.649974
 C         2.570064        -0.180634        -0.560614
 O         3.211876         0.556902        -1.587709
 C         2.764300        -1.634310        -0.192376
 H        -0.599718        -0.126196        -0.254623
 H        -0.227464         1.524237         0.355527
 H         0.042792         1.092382        -1.265433
 H         1.015128        -1.814016         1.413593
 H         1.885892         0.205838         2.608583
 H         3.536555        -0.713616         2.397876
 H         3.847574         1.953314        -0.213926
 H         3.580286        -0.218911        -2.237149
 H         2.324716        -2.339486        -0.846375
 H         3.719882        -2.047916         0.141032
