19
Iteration:  4770charge 0 multiplicity 1
 C         0.157345         0.891293        -0.253609
 C         1.385012         0.152957         0.254458
 C         1.841010        -1.107863         1.238901
 C         2.731631        -0.013039         1.891331
 C         2.706985         0.723684         0.607715
 O         3.376347         1.933751         0.377685
 C         2.559477        -0.310483        -0.555987
 O         2.995239         0.055974        -1.843750
 C         2.648275        -1.711829         0.028795
 H         0.124635         0.808548        -1.335450
 H        -0.684331         0.252720         0.135557
 H         0.177703         1.955326         0.059930
 H         1.271652        -1.781626         1.875097
 H         2.038196         0.469229         2.679714
 H         3.739691        -0.305105         2.302247
 H         3.218071         2.424909         1.213969
 H         3.448579         0.861266        -1.791805
 H         2.085070        -2.538012        -0.522086
 H         3.603628        -2.184875         0.362762
