19
Iteration:  3252charge 0 multiplicity 1
 C         0.089284         0.732558        -0.179950
 C         1.346568         0.081271         0.100013
 C         1.797311        -1.210761         0.853198
 C         2.697386        -0.434974         1.851968
 C         2.654786         0.613679         0.748626
 O         2.996322         1.995295         0.766925
 C         2.744913        -0.144994        -0.598920
 O         3.369882         0.575110        -1.493502
 C         2.786078        -1.611928        -0.306590
 H        -0.655994         0.471858         0.661667
 H         0.167660         1.836882        -0.409347
 H        -0.559776         0.274283        -1.042857
 H         1.053979        -1.880578         1.132541
 H         2.124602        -0.135100         2.806822
 H         3.575902        -1.042784         2.145991
 H         3.625328         2.078662         0.017290
 H         2.747937         0.505466        -2.347859
 H         2.237993        -2.283828        -0.942844
 H         3.758912        -1.931702         0.077119
