19
Iteration:  4767charge 0 multiplicity 1
 C         0.148355         0.882077        -0.257757
 C         1.379947         0.160419         0.241721
 C         1.829663        -1.104420         1.218892
 C         2.742218        -0.017012         1.901590
 C         2.718889         0.736276         0.603159
 O         3.379302         1.930256         0.372969
 C         2.529085        -0.342677        -0.528611
 O         3.006203         0.072776        -1.835152
 C         2.656487        -1.725382         0.032295
 H         0.092880         0.779869        -1.394635
 H        -0.654037         0.362607         0.180971
 H         0.164789         1.953843        -0.013823
 H         1.340093        -1.869502         1.874756
 H         2.081964         0.492300         2.731902
 H         3.790118        -0.264559         2.264487
 H         3.201719         2.314567         1.220052
 H         3.441854         0.955273        -1.843223
 H         2.044378        -2.437214        -0.445215
 H         3.597204        -2.113713         0.346808
