19
Iteration:  1949charge 0 multiplicity 1
 C         0.017867         0.686931        -0.371754
 C         1.311966         0.024723         0.166676
 C         1.844700        -1.302041         0.906542
 C         2.764370        -0.373828         1.903805
 C         2.580135         0.637431         0.809802
 O         3.080546         1.903313         0.846069
 C         2.685963        -0.106288        -0.571148
 O         3.379868         0.671067        -1.524856
 C         2.728048        -1.570332        -0.369883
 H         0.145815         1.788634        -0.376122
 H        -0.283475         0.197015        -1.384523
 H        -0.854630         0.491708         0.261771
 H         1.420582        -2.271560         1.133796
 H         2.277421         0.136748         2.749164
 H         3.696307        -0.728269         2.109275
 H         3.633480         2.072088         0.132057
 H         2.848727         0.797930        -2.369571
 H         2.180773        -2.311037        -1.022148
 H         3.700029        -2.006521         0.038366
