19
Iteration:   898charge 0 multiplicity 1
 C         0.180061         0.653989        -0.317964
 C         1.429625        -0.024582        -0.028273
 C         1.861953        -1.451155         0.611755
 C         2.457009        -0.524724         1.827806
 C         2.556730         0.507870         0.830723
 O         2.856114         1.823007         1.271965
 C         2.834934        -0.008720        -0.597927
 O         3.343945         0.950042        -1.492797
 C         2.975195        -1.456316        -0.448824
 H        -0.579942        -0.119944        -0.107158
 H         0.211239         1.641708         0.258458
 H         0.085554         0.951261        -1.364373
 H         1.251317        -2.360647         0.754734
 H         1.637346        -0.094645         2.509768
 H         3.485930        -0.824171         2.325062
 H         3.308847         2.294506         0.501274
 H         2.643705         1.108558        -2.153385
 H         2.660213        -1.937965        -1.422194
 H         3.874478        -2.067862        -0.188548
