19
Iteration:  3507charge 0 multiplicity 1
 C         0.026407         0.735417        -0.225475
 C         1.368287         0.095001         0.123708
 C         1.857247        -1.303193         0.817902
 C         2.678657        -0.360758         1.853487
 C         2.584696         0.614573         0.788349
 O         3.004658         1.947659         0.884915
 C         2.713049        -0.133729        -0.606222
 O         3.450926         0.598199        -1.525648
 C         2.772805        -1.629451        -0.398075
 H         0.161595         1.499505        -1.020706
 H        -0.637837        -0.130313        -0.490141
 H        -0.364697         1.330490         0.683245
 H         0.974601        -1.932943         1.265990
 H         2.076531         0.030656         2.614584
 H         3.447064        -0.768920         2.423218
 H         3.374521         2.233415         0.093780
 H         3.132375         0.533072        -2.408017
 H         2.160450        -2.376923        -1.031266
 H         3.705646        -2.051942        -0.028360
