19
Iteration:  1402
 C         0.036012         0.689012        -0.342705
 C         1.329277        -0.036466         0.118236
 C         1.838416        -1.353826         0.745692
 C         2.648344        -0.510528         1.860737
 C         2.582688         0.521846         0.842786
 O         2.915733         1.855354         1.016690
 C         2.729807         0.030132        -0.527440
 O         3.455919         0.781733        -1.471130
 C         2.875303        -1.491174        -0.476544
 H        -0.836373         0.051332        -0.237186
 H        -0.184387         1.587871         0.240446
 H         0.028154         1.126227        -1.396699
 H         1.162852        -2.199175         1.016138
 H         1.968126        -0.181387         2.699273
 H         3.721225        -0.632357         2.096319
 H         3.637124         2.070691         0.365906
 H         2.916438         0.740778        -2.301029
 H         2.579897        -1.820877        -1.481254
 H         3.908318        -1.812920        -0.272913
