19
Iteration:  2312
 C        -0.026666         0.670897        -0.163099
 C         1.284291         0.061850         0.105967
 C         1.821711        -1.187229         0.904510
 C         2.625271        -0.268107         1.919039
 C         2.650328         0.664404         0.739281
 O         3.147820         1.919060         0.837798
 C         2.769742        -0.082055        -0.550825
 O         3.335159         0.407922        -1.816449
 C         2.834894        -1.575463        -0.203665
 H         0.061353         1.765186         0.113973
 H        -0.283414         0.592456        -1.288416
 H        -0.846474         0.285319         0.535056
 H         1.363025        -2.012921         1.359382
 H         1.858343         0.065790         2.692324
 H         3.558819        -0.447549         2.477686
 H         3.700834         2.071790         0.121130
 H         2.502968         0.595537        -2.396767
 H         2.364572        -2.103375        -1.028520
 H         3.810805        -2.146739         0.143312
