19
Iteration:  1796
 C         0.043681         0.741574        -0.280789
 C         1.402597         0.082268         0.041331
 C         1.961352        -1.361384         0.826980
 C         2.646766        -0.419776         1.947592
 C         2.579815         0.568046         0.817339
 O         2.929337         1.925527         0.889489
 C         2.772282        -0.077178        -0.606358
 O         3.329096         0.733349        -1.543722
 C         2.800620        -1.647998        -0.363724
 H        -0.664872        -0.053780        -0.270775
 H        -0.394344         1.484640         0.393453
 H         0.162244         1.264129        -1.172443
 H         1.299865        -2.054371         1.196308
 H         2.003629         0.218284         2.737549
 H         3.571417        -0.790511         2.504480
 H         3.799956         1.893414         0.556956
 H         3.099731         0.356607        -2.381120
 H         2.133003        -1.900170        -1.218944
 H         3.694760        -2.269537        -0.370791
