19
Iteration:  1549
 C         0.113394         0.688254        -0.309358
 C         1.407235         0.102518         0.084470
 C         1.855899        -1.382110         0.775949
 C         2.586836        -0.507542         1.873459
 C         2.622351         0.542803         0.829061
 O         2.937017         1.947922         0.960888
 C         2.776522        -0.090157        -0.572290
 O         3.306055         0.821178        -1.470833
 C         2.854398        -1.558378        -0.467575
 H        -0.059035         1.050023        -1.336080
 H        -0.578335        -0.126472        -0.192901
 H        -0.202721         1.485898         0.367001
 H         1.181467        -2.158236         1.056983
 H         1.866373        -0.256979         2.651051
 H         3.503011        -0.961020         2.426826
 H         3.859060         2.112464         0.576606
 H         3.097282         0.481154        -2.437740
 H         2.412336        -2.098222        -1.295971
 H         3.756319        -2.055141        -0.121765
