19
Iteration:  3034
 C         0.125040         0.741333        -0.221066
 C         1.412762         0.105463         0.115038
 C         1.764738        -1.268536         0.910954
 C         2.627054        -0.388368         1.835620
 C         2.719686         0.637406         0.725526
 O         3.065981         2.088071         0.909160
 C         2.681644        -0.152732        -0.591601
 O         3.230842         0.477571        -1.765641
 C         2.828795        -1.669630        -0.161366
 H         0.200215         1.304972        -1.161153
 H        -0.502170        -0.086402        -0.427942
 H        -0.278486         1.474739         0.498551
 H         1.045579        -1.902234         1.299985
 H         2.087457         0.090206         2.725536
 H         3.542007        -0.937469         2.230724
 H         3.802958         2.487913         0.371208
 H         2.572488         0.408748        -2.434054
 H         2.380372        -2.535291        -0.811549
 H         3.810326        -2.099141         0.144260
