19
Iteration:   782
 C         0.066692         0.588436        -0.447354
 C         1.437970         0.098948         0.061336
 C         1.817439        -1.389086         0.624394
 C         2.527397        -0.750320         1.826636
 C         2.637889         0.521124         0.929628
 O         2.857548         1.885031         1.231929
 C         2.860848         0.065664        -0.517508
 O         3.382227         0.992599        -1.468113
 C         2.931564        -1.442423        -0.507319
 H        -0.369590         1.357588         0.106900
 H         0.033715         0.730691        -1.468971
 H        -0.602751        -0.294014        -0.243295
 H         1.054404        -2.197417         0.670927
 H         1.870783        -0.627406         2.651914
 H         3.385421        -1.260872         2.134421
 H         3.408702         2.221919         0.410027
 H         2.786044         0.915805        -2.310602
 H         2.620502        -1.904797        -1.470745
 H         3.948195        -1.962869        -0.225714
