19
Iteration:  2516
 C         0.057637         0.730944        -0.165637
 C         1.302346         0.078657         0.233353
 C         1.725286        -1.188617         1.061715
 C         2.763703        -0.400732         1.849472
 C         2.721412         0.655238         0.672208
 O         3.056881         2.025400         0.582227
 C         2.673606        -0.155430        -0.550527
 O         3.380385         0.468770        -1.556970
 C         2.751932        -1.643602        -0.227704
 H        -0.822475         0.147722        -0.239485
 H        -0.220155         1.511875         0.487271
 H         0.088905         1.093805        -1.174400
 H         0.980492        -1.853834         1.540657
 H         2.345433         0.127984         2.682617
 H         3.726450        -0.702753         1.993344
 H         3.362718         2.133864        -0.430665
 H         3.038784         0.266322        -2.527975
 H         2.177603        -2.134986        -1.060738
 H         3.705520        -2.101689        -0.053353
