19
Iteration:  2166charge 0 multiplicity 1
 C         0.013677         0.612290        -0.244774
 C         1.387465         0.067250         0.063773
 C         1.865759        -1.203853         0.913310
 C         2.579910        -0.273384         1.969540
 C         2.662245         0.671631         0.770853
 O         3.208183         1.912535         0.916597
 C         2.740560        -0.086856        -0.586224
 O         3.236725         0.575209        -1.703643
 C         2.806331        -1.625043        -0.312803
 H        -0.455633         0.144323        -1.101939
 H        -0.782339         0.463241         0.502571
 H         0.200224         1.629642        -0.617903
 H         1.054440        -1.931475         1.247417
 H         1.800070        -0.028921         2.634436
 H         3.406268        -0.660400         2.566548
 H         3.507129         2.275616         0.112205
 H         2.782289         0.027833        -2.463378
 H         2.214718        -2.273340        -0.988779
 H         3.819541        -2.075974        -0.087946
