19
Iteration:   628
 C         0.013191         0.558348        -0.347516
 C         1.404398         0.020274        -0.020113
 C         1.825039        -1.362458         0.464815
 C         2.485862        -0.761062         1.837428
 C         2.552628         0.507220         0.870639
 O         2.835838         1.849509         1.222069
 C         2.936524         0.124453        -0.529029
 O         3.457955         1.069287        -1.359876
 C         2.974661        -1.433734        -0.485820
 H        -0.400779        -0.327615        -0.773744
 H        -0.500249         0.729914         0.580412
 H        -0.102289         1.543884        -0.939596
 H         1.011661        -2.305453         0.566681
 H         1.730006        -0.795210         2.654804
 H         3.362588        -1.302089         1.989940
 H         3.599078         2.201209         0.598008
 H         3.163388         0.945424        -2.256006
 H         2.606838        -1.860940        -1.409287
 H         3.850323        -2.035601        -0.180059
