19
Iteration:  2130
 C        -0.012946         0.655244        -0.281596
 C         1.344566         0.082522         0.128570
 C         1.800464        -1.200082         0.876205
 C         2.743404        -0.446099         1.898505
 C         2.641574         0.661695         0.815768
 O         3.115656         1.991906         0.848635
 C         2.664507        -0.139757        -0.582068
 O         3.280005         0.606897        -1.626660
 C         2.821760        -1.622684        -0.255162
 H        -0.622179        -0.224875        -0.627544
 H        -0.442655         1.426682         0.312645
 H         0.221901         1.247747        -1.280802
 H         0.910575        -1.628957         1.274867
 H         2.279001        -0.170662         2.818696
 H         3.660890        -0.827233         2.137130
 H         3.682373         2.137086         0.120835
 H         3.020963         0.297299        -2.598268
 H         2.472747        -2.429171        -1.037090
 H         3.771823        -1.980246         0.223248
