19
Iteration:   718
 C         0.125854         0.719001        -0.428079
 C         1.460423         0.014970         0.067738
 C         1.942918        -1.429765         0.573732
 C         2.509299        -0.717433         1.833364
 C         2.587930         0.537482         0.915066
 O         2.782538         1.846637         1.265465
 C         2.853633         0.004262        -0.547319
 O         3.317283         1.013308        -1.431932
 C         2.987109        -1.523362        -0.543857
 H         0.353948         1.612776        -1.018462
 H        -0.571207         0.130716        -1.001992
 H        -0.553668         1.043476         0.441635
 H         1.160250        -2.209160         0.647574
 H         1.726843        -0.580044         2.501775
 H         3.393627        -1.111375         2.329370
 H         3.059745         2.356904         0.390234
 H         2.907071         0.917700        -2.292534
 H         2.674452        -1.986870        -1.491109
 H         3.973223        -1.875812        -0.176571
