19
Iteration:  4606charge 0 multiplicity 1
 C         0.286377         0.854043        -0.231413
 C         1.487103         0.082859         0.127453
 C         1.822952        -1.091084         1.127704
 C         2.753362        -0.106395         1.951564
 C         2.826275         0.701517         0.654873
 O         3.149424         2.004705         0.557244
 C         2.667605        -0.378186        -0.591464
 O         2.963846         0.243544        -1.794685
 C         2.600332        -1.761940         0.010872
 H         0.188388         1.908720         0.126702
 H        -0.009738         1.120551        -1.350667
 H        -0.584850         0.331136         0.176377
 H         1.089014        -1.583440         1.822534
 H         2.076024         0.392060         2.574351
 H         3.537757        -0.624552         2.494924
 H         2.665770         2.584469        -0.088803
 H         3.869927         0.250167        -1.860671
 H         1.816598        -2.257164        -0.703673
 H         3.537891        -2.403506         0.090409
