19
Iteration:  4903
 C         0.057966         0.789999        -0.196273
 C         1.433780         0.201477         0.197419
 C         1.820330        -0.957858         1.200353
 C         2.834271         0.036696         1.952152
 C         2.825360         0.683898         0.667486
 O         3.319022         1.921363         0.306034
 C         2.694511        -0.281945        -0.536074
 O         2.879278         0.118765        -1.837816
 C         2.575331        -1.776203         0.163192
 H        -0.759011         0.515352         0.444899
 H         0.176762         1.943985        -0.227795
 H        -0.218228         0.596721        -1.269892
 H         1.053701        -1.534965         1.683991
 H         2.208160         0.525534         2.771415
 H         3.732763        -0.562660         2.368293
 H         4.118244         1.897208        -0.208288
 H         3.507164        -0.510937        -2.226572
 H         1.951955        -2.364906        -0.570835
 H         3.478049        -2.193158         0.437932
