19
Iteration:  3937
 C         0.107357         0.761829        -0.157508
 C         1.465874         0.065740         0.111970
 C         1.764887        -1.211287         0.947011
 C         2.608885        -0.359766         1.940274
 C         2.752658         0.627765         0.733102
 O         3.027692         2.045510         0.702537
 C         2.706101        -0.167815        -0.595066
 O         3.293768         0.438082        -1.637315
 C         2.758537        -1.636889        -0.245249
 H         0.404868         1.782895        -0.522097
 H        -0.554057         0.330215        -0.987405
 H        -0.624479         0.826603         0.658908
 H         0.993730        -1.876243         1.352159
 H         1.916112         0.114583         2.663307
 H         3.551992        -0.900537         2.302395
 H         3.919096         2.328454         0.326537
 H         2.634176         0.247856        -2.299413
 H         2.203406        -2.190698        -1.160170
 H         3.770268        -2.044094        -0.102777
