19
Iteration:  3378charge 0 multiplicity 1
 C         0.203768         0.747639        -0.439340
 C         1.322518         0.067491         0.231909
 C         1.813430        -1.327057         0.937806
 C         2.719909        -0.494451         1.935274
 C         2.578191         0.634069         0.864481
 O         3.045888         1.985211         0.867545
 C         2.836915        -0.116888        -0.498922
 O         3.221175         0.710717        -1.680275
 C         2.727610        -1.641862        -0.311303
 H         0.412163         1.818189        -0.435426
 H         0.148269         0.481555        -1.514616
 H        -0.726415         0.493767         0.027786
 H         1.173253        -2.225022         1.249046
 H         2.063973        -0.159180         2.717640
 H         3.789826        -0.866789         2.189463
 H         3.413874         2.111497        -0.088572
 H         2.574489         0.494272        -2.462981
 H         2.105502        -2.247154        -1.048127
 H         3.670336        -2.142638        -0.165776
