19
Iteration:   631charge 0 multiplicity 1
 C         0.036459         0.550810        -0.347613
 C         1.359010         0.003610        -0.025407
 C         1.803898        -1.384478         0.475382
 C         2.503097        -0.741845         1.818795
 C         2.552526         0.536032         0.901639
 O         2.838032         1.847394         1.219624
 C         2.913118         0.137481        -0.534922
 O         3.485205         1.054896        -1.350031
 C         2.963996        -1.428781        -0.496372
 H        -0.456743        -0.316888        -0.864497
 H        -0.493507         0.579755         0.597577
 H        -0.018132         1.550716        -0.861222
 H         1.116762        -2.207820         0.586650
 H         1.758511        -0.776052         2.540090
 H         3.468800        -1.248683         2.025673
 H         3.610263         2.062222         0.678413
 H         3.131452         0.936677        -2.363342
 H         2.669578        -1.832843        -1.452287
 H         3.783555        -1.927356        -0.186448
