19
Iteration:  4644charge 0 multiplicity 1
 C         0.081240         0.891246        -0.198081
 C         1.386292         0.199648         0.164333
 C         1.808248        -1.070902         1.092681
 C         2.722003        -0.208483         1.973299
 C         2.693984         0.678917         0.638471
 O         3.326813         1.995785         0.527534
 C         2.603937        -0.230949        -0.561985
 O         3.021630         0.089432        -1.842865
 C         2.741159        -1.678628         0.001127
 H        -0.280317         1.209674         0.786786
 H         0.230366         1.671295        -0.911555
 H        -0.472674         0.020426        -0.583182
 H         1.133779        -1.765702         1.582472
 H         2.155914         0.266966         2.866155
 H         3.769407        -0.598123         2.293728
 H         2.787999         2.525199        -0.035602
 H         4.032270         0.034365        -1.887628
 H         2.232432        -2.381218        -0.601453
 H         3.716165        -2.013503         0.290137
