19
Iteration:  3178
 C         0.125712         0.749595        -0.219104
 C         1.439680         0.100020         0.153569
 C         1.797299        -1.230265         0.902969
 C         2.598469        -0.466344         1.939984
 C         2.631332         0.633909         0.760218
 O         3.010593         2.054794         0.927764
 C         2.842170        -0.163136        -0.658332
 O         3.224726         0.535771        -1.821817
 C         2.837924        -1.674029        -0.190353
 H        -0.787605         0.244904        -0.515903
 H        -0.128894         1.576641         0.403370
 H         0.250867         1.327938        -1.157868
 H         1.129817        -1.995784         1.237567
 H         2.087848        -0.224591         2.895102
 H         3.554435        -0.853154         2.449124
 H         3.610347         2.465810         0.180095
 H         2.469894         0.417392        -2.465571
 H         2.357999        -2.305470        -1.074263
 H         3.747400        -2.185647         0.176521
