19
Iteration:  1520
 C         0.148363         0.625787        -0.347141
 C         1.444494         0.063288         0.133674
 C         1.739509        -1.317508         0.778799
 C         2.679159        -0.629696         1.836224
 C         2.618073         0.550776         0.829179
 O         2.890493         2.004932         0.995694
 C         2.851748        -0.077437        -0.531978
 O         3.351530         0.852504        -1.555323
 C         2.791471        -1.538264        -0.386522
 H         0.078157         0.701547        -1.440649
 H        -0.793283         0.042300         0.024723
 H        -0.016421         1.558569         0.157751
 H         0.916161        -2.059535         1.036122
 H         1.983827        -0.399134         2.726580
 H         3.580917        -1.142616         2.006750
 H         3.684440         2.207522         0.356755
 H         2.783293         0.755319        -2.434209
 H         2.364013        -2.092617        -1.226591
 H         3.601849        -2.088702         0.101475
