19
Iteration:    17charge 0 multiplicity 1
 C         0.057519         0.581767        -0.551416
 C         1.401619         0.040198        -0.071037
 C         1.813824        -1.424851         0.290996
 C         2.568084        -0.963717         1.588886
 C         2.594850         0.433978         0.922859
 O         2.684293         1.656621         1.553815
 C         2.843473         0.165825        -0.512738
 O         3.339058         1.359439        -1.110791
 C         3.149838        -1.349351        -0.589601
 H        -0.841077         0.073581        -0.116495
 H        -0.137043         1.627450        -0.194833
 H         0.025455         0.481431        -1.671847
 H         1.125798        -2.305299         0.310786
 H         2.049212        -0.953841         2.562337
 H         3.539504        -1.461341         1.745225
 H         3.399040         2.080109         1.154620
 H         3.446520         1.161429        -2.001135
 H         3.055340        -1.753965        -1.637489
 H         4.127690        -1.683844        -0.050087
