19
Iteration:  1922
 C         0.097638         0.631032        -0.346388
 C         1.415863         0.087727         0.129646
 C         1.757271        -1.289254         0.863205
 C         2.643047        -0.492085         1.861260
 C         2.619936         0.667606         0.844468
 O         3.102796         1.955345         0.851461
 C         2.725526        -0.080604        -0.505929
 O         3.248868         0.681417        -1.568473
 C         2.830473        -1.569531        -0.336792
 H         0.212515         1.534889        -0.953292
 H        -0.508538        -0.114007        -0.796191
 H        -0.474870         1.030461         0.528423
 H         1.113190        -2.128249         1.216983
 H         2.059245        -0.065609         2.674247
 H         3.624692        -0.967518         2.282294
 H         3.444603         2.218528         0.025931
 H         2.917521         0.313686        -2.425616
 H         2.483415        -2.196781        -1.125530
 H         3.752194        -1.951900         0.029379
