19
Iteration:  1718
 C         0.157321         0.580011        -0.282031
 C         1.397861         0.011897         0.125408
 C         1.866472        -1.306463         0.850066
 C         2.554103        -0.405702         1.865899
 C         2.652927         0.631941         0.748511
 O         3.023171         1.925519         1.067521
 C         2.773308        -0.060082        -0.647949
 O         3.335410         0.688122        -1.594879
 C         2.766702        -1.539128        -0.388035
 H        -0.625374         0.559239         0.468152
 H         0.457224         1.669837        -0.503513
 H        -0.366337         0.210968        -1.197905
 H         1.213695        -2.165392         1.081173
 H         1.530046        -0.179812         2.514480
 H         3.486220        -0.638411         2.516789
 H         3.393291         2.414750         0.191368
 H         2.516668         0.744160        -2.284696
 H         2.197956        -2.055169        -1.163159
 H         3.770117        -2.014244        -0.345228
