19
Iteration:   315
 C         0.081278         0.555397        -0.540429
 C         1.429571         0.051848        -0.052517
 C         1.825260        -1.422181         0.435045
 C         2.500209        -0.896253         1.707813
 C         2.570634         0.525702         0.931417
 O         2.817086         1.747147         1.494913
 C         2.898493         0.132269        -0.491200
 O         3.361447         1.170072        -1.278957
 C         3.053133        -1.351280        -0.566390
 H        -0.468463        -0.316962        -1.055301
 H        -0.637853         1.060507         0.160843
 H         0.283231         1.264680        -1.334205
 H         1.133137        -2.317068         0.623932
 H         1.771471        -0.825671         2.495982
 H         3.466195        -1.265226         1.982837
 H         3.024565         2.242198         0.700274
 H         2.855845         1.025692        -2.151595
 H         2.766913        -1.665479        -1.537168
 H         3.973755        -1.698476        -0.300641
