19
Iteration:  4947
 C         0.078858         0.833932        -0.240896
 C         1.361881         0.191795         0.281622
 C         1.790155        -0.962252         1.269110
 C         2.890669        -0.061244         1.893045
 C         2.777243         0.729102         0.603820
 O         3.313325         2.005122         0.388595
 C         2.658396        -0.311448        -0.566357
 O         2.988727        -0.052470        -1.836757
 C         2.612816        -1.665965         0.123511
 H        -0.502547         0.062267        -0.705662
 H        -0.445296         1.331090         0.667831
 H         0.436478         1.647114        -0.942390
 H         0.993933        -1.469592         1.826723
 H         2.436733         0.660748         2.648519
 H         3.972893        -0.307573         2.256001
 H         3.822601         2.083738        -0.405356
 H         2.294729        -0.508770        -2.398096
 H         1.940897        -2.350366        -0.495398
 H         3.504629        -2.137344         0.429348
