19
Iteration:  4759
 C         0.115456         0.832779        -0.296139
 C         1.312122         0.177783         0.181148
 C         1.819550        -1.063079         1.185419
 C         2.805130        -0.048333         1.934807
 C         2.749448         0.677385         0.612289
 O         3.372939         1.920161         0.359279
 C         2.551047        -0.365113        -0.520811
 O         3.024052         0.117044        -1.790474
 C         2.655848        -1.718219         0.078692
 H        -0.119139         0.647970        -1.349155
 H        -0.875793         0.741239         0.314452
 H         0.147530         1.953320        -0.208691
 H         1.260888        -1.791002         1.764611
 H         2.416228         0.583299         2.842112
 H         3.840120        -0.356439         2.263147
 H         3.335987         2.412247         1.150564
 H         3.246831         1.017281        -1.668317
 H         1.883766        -2.406575        -0.446660
 H         3.735066        -2.025462         0.195713
