19
Iteration:  4284
 C        -0.010972         0.725084        -0.338257
 C         1.330841         0.183388         0.191248
 C         1.753063        -1.125659         1.085125
 C         2.809611        -0.280404         1.869491
 C         2.709009         0.719547         0.641335
 O         3.251130         1.910152         0.690986
 C         2.647624        -0.221896        -0.546436
 O         3.270804         0.464342        -1.707100
 C         2.673977        -1.710401        -0.046969
 H        -0.251847         1.806325        -0.093162
 H        -0.238793         0.592575        -1.345602
 H        -0.763707         0.175657         0.308086
 H         1.017698        -1.790447         1.570930
 H         2.323655         0.071796         2.846108
 H         3.786181        -0.848091         1.971581
 H         3.416853         2.262961        -0.231044
 H         2.885725        -0.006697        -2.562130
 H         2.203951        -2.371136        -0.698188
 H         3.645878        -2.045500         0.314058
