19
Iteration:  4589
 C         0.225978         0.859670        -0.275009
 C         1.433843         0.184986         0.221123
 C         1.773953        -1.089331         1.101282
 C         2.777817        -0.201163         1.948649
 C         2.787398         0.681783         0.653267
 O         3.160777         2.035318         0.572038
 C         2.738842        -0.320506        -0.542649
 O         2.986438         0.197969        -1.837887
 C         2.598413        -1.798794        -0.024430
 H         0.311172         1.973555        -0.080767
 H         0.085445         0.544894        -1.266072
 H        -0.695799         0.686117         0.305682
 H         0.994479        -1.632365         1.616941
 H         2.432146         0.412380         2.869821
 H         3.875302        -0.443901         2.204248
 H         2.647765         2.299047        -0.232261
 H         3.811303         0.695651        -1.890311
 H         1.996141        -2.497091        -0.542311
 H         3.474100        -2.270988         0.358477
