19
Iteration:  4168
 C         0.141262         0.879481        -0.192414
 C         1.370176         0.132326         0.176193
 C         1.817619        -1.172837         1.025583
 C         2.738228        -0.300608         1.972066
 C         2.670714         0.660520         0.683511
 O         3.018350         2.056580         0.782081
 C         2.650906        -0.190858        -0.572376
 O         3.294030         0.279169        -1.785950
 C         2.702718        -1.657283        -0.227993
 H        -0.046323         0.548317        -1.236810
 H        -0.838205         0.421839         0.264958
 H         0.193220         1.970974        -0.176994
 H         1.122681        -1.982507         1.176672
 H         2.315674         0.181469         2.844807
 H         3.683777        -0.734023         2.273187
 H         3.801092         2.206292         0.168507
 H         3.070026        -0.620316        -2.310907
 H         2.186742        -2.182676        -1.136944
 H         3.736574        -2.074801        -0.087853
