19
Iteration:   193
 C         0.049641         0.622948        -0.350643
 C         1.375508         0.015168        -0.085772
 C         1.956666        -1.449175         0.363581
 C         2.501247        -0.807941         1.681860
 C         2.421528         0.492711         0.871730
 O         2.619500         1.681560         1.540863
 C         2.836594         0.167379        -0.576294
 O         3.566074         1.166375        -1.267362
 C         3.114202        -1.347394        -0.627066
 H         0.065351         1.611119         0.190897
 H        -0.140592         0.906093        -1.408459
 H        -0.834655        -0.035830        -0.232773
 H         1.304195        -2.521179         0.484311
 H         1.824725        -0.999113         2.582140
 H         3.487429        -1.107434         2.020598
 H         3.431704         1.949145         0.944600
 H         3.237849         1.182468        -2.224665
 H         2.756211        -1.867578        -1.546759
 H         4.154472        -1.683795        -0.394516
