19
Iteration:  3057
 C         0.048143         0.697115        -0.299443
 C         1.350366         0.060898         0.086498
 C         1.838133        -1.151735         0.948243
 C         2.719529        -0.298874         1.912674
 C         2.595202         0.606451         0.751480
 O         3.125273         1.874855         0.834636
 C         2.760915        -0.143622        -0.535959
 O         3.261975         0.528918        -1.657540
 C         2.745297        -1.564082        -0.248798
 H         0.016305         1.034954        -1.356104
 H        -0.717597        -0.055318        -0.215665
 H        -0.189173         1.604452         0.281258
 H         1.289528        -1.887778         1.397708
 H         2.107353         0.004622         2.797867
 H         3.740135        -0.675376         2.248712
 H         3.748414         2.255396         0.128305
 H         2.554672         0.464144        -2.366795
 H         2.242128        -2.256925        -1.069371
 H         3.650683        -2.110411         0.037695
