19
Iteration:  3615
 C         0.146723         0.689030        -0.378254
 C         1.403675         0.207645         0.112063
 C         1.738365        -1.197967         0.871768
 C         2.673955        -0.511240         1.871993
 C         2.679431         0.666011         0.778356
 O         3.064861         2.005081         1.023924
 C         2.649723        -0.150466        -0.571488
 O         3.213724         0.467848        -1.703038
 C         2.878746        -1.535985        -0.259097
 H        -0.101066         1.621375         0.028355
 H         0.047129         0.895000        -1.384873
 H        -0.638663        -0.036415        -0.099225
 H         0.884952        -1.923206         1.281602
 H         2.073763        -0.141473         2.805112
 H         3.682221        -1.051095         2.091719
 H         3.900806         2.251535         0.734706
 H         2.758822         0.312385        -2.466563
 H         2.409716        -2.120230        -1.045260
 H         3.802701        -2.061650        -0.088002
