19
Iteration:  4564
 C         0.130739         0.808086        -0.303264
 C         1.306487         0.124640         0.192856
 C         1.820520        -1.078475         1.177676
 C         2.810608        -0.258011         1.865648
 C         2.701521         0.724379         0.705401
 O         3.289945         1.970971         0.590860
 C         2.620056        -0.184318        -0.518904
 O         3.056515         0.081937        -1.794604
 C         2.647125        -1.559947        -0.063141
 H         0.482440         1.744196        -0.667910
 H        -0.290930         0.204911        -1.205769
 H        -0.630923         1.141213         0.372882
 H         1.135624        -1.770680         1.721936
 H         2.476864         0.169603         2.803867
 H         3.900123        -0.692646         2.051112
 H         2.732128         2.324933        -0.091851
 H         3.938739         0.656315        -1.790935
 H         2.008932        -2.226902        -0.715952
 H         3.581517        -2.015135         0.189580
