19
Iteration:  2780charge 0 multiplicity 1
 C         0.093057         0.817429        -0.238184
 C         1.345092         0.059295         0.193539
 C         1.793203        -1.282941         0.976011
 C         2.755624        -0.326504         1.867025
 C         2.650450         0.655835         0.697137
 O         3.090766         2.018304         0.739037
 C         2.662286        -0.155118        -0.560064
 O         3.273382         0.454015        -1.699456
 C         2.765581        -1.662866        -0.147594
 H        -0.727907         0.104979        -0.227211
 H        -0.149699         1.680972         0.369648
 H         0.148251         1.338149        -1.255331
 H         1.035205        -1.987486         1.523495
 H         2.385681         0.278123         2.746064
 H         3.665150        -0.682931         2.248813
 H         3.606084         2.241522        -0.103334
 H         2.863764        -0.045473        -2.352268
 H         2.197690        -2.297792        -0.863533
 H         3.693063        -2.136569        -0.083448
