19
Iteration:  2040charge 0 multiplicity 1
 C         0.098116         0.770556        -0.214168
 C         1.319856        -0.026027         0.124504
 C         1.832603        -1.273695         0.831527
 C         2.582517        -0.371720         1.870841
 C         2.651113         0.619048         0.726520
 O         3.074752         1.962182         0.925310
 C         2.744776        -0.061930        -0.598847
 O         3.258528         0.609801        -1.676708
 C         2.848804        -1.631318        -0.234477
 H        -0.694124         0.551679         0.568994
 H         0.323748         1.750982        -0.561800
 H        -0.545406         0.389685        -1.104792
 H         1.148380        -2.081780         1.145495
 H         2.233983         0.176363         2.796751
 H         3.516246        -0.678109         2.076101
 H         3.717653         2.092591         0.302065
 H         2.786299         0.061097        -2.456457
 H         2.722998        -2.545565        -0.959597
 H         3.848623        -1.849607         0.238236
