19
Iteration:   696charge 0 multiplicity 1
 C         0.177264         0.623846        -0.343047
 C         1.461309        -0.036439         0.020558
 C         1.747811        -1.329325         0.573055
 C         2.547857        -0.741721         1.747180
 C         2.559870         0.564156         0.895474
 O         2.746478         1.882323         1.245899
 C         2.879652         0.026376        -0.500408
 O         3.426293         0.992702        -1.386555
 C         2.973108        -1.453077        -0.533837
 H         0.235058         1.029889        -1.351296
 H        -0.515998        -0.197538        -0.426192
 H        -0.351109         1.307825         0.404143
 H         1.199315        -2.279529         0.535736
 H         2.028291        -0.659047         2.661447
 H         3.517423        -1.216780         1.816036
 H         2.955337         2.374099         0.494679
 H         3.015384         0.874074        -2.299471
 H         2.445796        -1.750332        -1.430382
 H         3.870275        -2.003596        -0.345419
