19
Iteration:  2837
 C         0.131601         0.671642        -0.353984
 C         1.360773         0.048353         0.196911
 C         1.869525        -1.261384         1.026217
 C         2.691289        -0.312330         1.933522
 C         2.744054         0.643653         0.788985
 O         3.192703         2.019495         0.696154
 C         2.669322        -0.110931        -0.529493
 O         3.174185         0.475402        -1.648495
 C         2.677570        -1.622998        -0.234328
 H        -0.907264         0.355117        -0.042433
 H         0.112933         1.730204        -0.038313
 H         0.119270         0.533204        -1.486807
 H         1.177747        -1.761702         1.663062
 H         2.080749         0.078188         2.714102
 H         3.656661        -0.670267         2.181307
 H         3.592074         2.141597        -0.130063
 H         2.383208         0.448492        -2.214889
 H         1.921538        -1.967126        -1.000817
 H         3.597391        -2.167240        -0.246671
