19
Iteration:  2691
 C         0.028628         0.733013        -0.207327
 C         1.271455         0.081339         0.218728
 C         1.834594        -1.196905         1.015350
 C         2.778654        -0.268911         1.959904
 C         2.602269         0.640261         0.739723
 O         3.154966         1.964023         0.584252
 C         2.707330        -0.137988        -0.556230
 O         3.348535         0.404293        -1.657433
 C         2.697725        -1.614106        -0.252988
 H        -0.200163         0.633749        -1.279111
 H        -0.864851         0.301592         0.272668
 H         0.051797         1.828481         0.055318
 H         1.227700        -1.883954         1.653390
 H         2.208722         0.246292         2.793741
 H         3.705340        -0.614321         2.324655
 H         3.567250         1.892825        -0.283019
 H         2.754779         0.503666        -2.336893
 H         2.113342        -2.292041        -0.919137
 H         3.664877        -2.039774        -0.029446
