19
Iteration:  2245
 C         0.108235         0.785251        -0.322673
 C         1.383425         0.005678         0.214090
 C         1.836525        -1.255094         0.971879
 C         2.756899        -0.312031         1.842878
 C         2.659883         0.633738         0.758923
 O         2.993053         1.977186         0.747437
 C         2.653016        -0.158415        -0.601153
 O         3.282832         0.544711        -1.532356
 C         2.761115        -1.610399        -0.307920
 H         0.337527         1.392444        -1.217140
 H        -0.816571         0.107790        -0.471225
 H        -0.265295         1.548349         0.470121
 H         1.441755        -2.109785         1.538788
 H         2.082710        -0.115942         2.722863
 H         3.691191        -0.834411         2.224076
 H         3.654494         2.133869        -0.053980
 H         3.064472         0.272031        -2.401636
 H         2.124203        -2.280698        -0.858990
 H         3.686040        -2.211683         0.026946
