19
Iteration:  1399charge 0 multiplicity 1
 C         0.034683         0.699086        -0.343688
 C         1.317983         0.002412         0.104631
 C         1.833253        -1.371753         0.742169
 C         2.676198        -0.530361         1.855537
 C         2.567954         0.534868         0.845780
 O         2.913928         1.855011         1.010114
 C         2.749091         0.008834        -0.526343
 O         3.448772         0.771808        -1.467641
 C         2.882099        -1.480472        -0.452387
 H        -0.847157        -0.010919        -0.235864
 H        -0.231048         1.650154         0.271582
 H        -0.023144         1.040900        -1.371107
 H         1.131429        -2.142010         0.936743
 H         2.036797        -0.175388         2.695419
 H         3.678889        -0.655646         2.096718
 H         3.523915         2.170716         0.383399
 H         2.985783         0.807396        -2.248008
 H         2.531262        -1.833187        -1.546240
 H         4.001571        -1.921134        -0.263457
