19
Iteration:  4010
 C         0.203220         0.782105        -0.362351
 C         1.420726         0.129919         0.201530
 C         1.801784        -1.231091         1.016948
 C         2.735434        -0.386738         1.921480
 C         2.654632         0.722409         0.785045
 O         3.094515         1.980603         0.849587
 C         2.722922        -0.068815        -0.564220
 O         3.194010         0.345244        -1.771942
 C         2.677717        -1.610518        -0.235245
 H        -0.283133         1.397158         0.464745
 H         0.172710         1.257905        -1.316073
 H        -0.612310        -0.053138        -0.388132
 H         1.004351        -1.882810         1.375091
 H         2.101726        -0.034103         2.754088
 H         3.698981        -0.819121         2.217784
 H         3.481398         2.355390         0.053593
 H         2.636774         0.270125        -2.511393
 H         2.274117        -2.240009        -0.984364
 H         3.642026        -2.199132         0.027479
