19
Iteration:  2868
 C        -0.009749         0.629081        -0.258657
 C         1.358091         0.124898         0.138105
 C         1.779287        -1.177897         0.920702
 C         2.655141        -0.300668         1.916972
 C         2.728333         0.665499         0.734524
 O         3.323426         1.962160         0.838775
 C         2.645638        -0.142780        -0.593889
 O         3.153984         0.536842        -1.769930
 C         2.787699        -1.654162        -0.106941
 H        -0.836773         0.383218         0.383301
 H         0.127255         1.656500        -0.534061
 H        -0.173152         0.118441        -1.229590
 H         0.975972        -1.788777         1.475954
 H         2.067487         0.038373         2.835185
 H         3.632756        -0.756738         2.152536
 H         3.793003         2.060924        -0.066878
 H         2.581977         0.320756        -2.606612
 H         2.468272        -2.474971        -0.767352
 H         3.722714        -1.950620         0.337421
