19
Iteration:  3712charge 0 multiplicity 1
 C         0.063739         0.785418        -0.190289
 C         1.356534         0.105736         0.060112
 C         1.825358        -1.253641         0.910519
 C         2.656670        -0.383356         1.879124
 C         2.560819         0.643308         0.778645
 O         3.110078         1.900118         0.791964
 C         2.635950        -0.144215        -0.686628
 O         3.337345         0.550167        -1.588358
 C         2.837712        -1.552282        -0.219572
 H        -0.679914         0.317057         0.502586
 H        -0.066943         1.868085         0.050197
 H        -0.463980         0.599335        -1.219004
 H         0.918350        -1.989093         1.134940
 H         2.015626        -0.263657         2.847935
 H         3.539231        -0.868255         2.291863
 H         3.918445         2.148964         0.204221
 H         3.358588         0.168318        -2.474125
 H         2.482358        -2.321498        -0.845512
 H         3.904997        -1.958032        -0.043788
