19
Iteration:   638charge 0 multiplicity 1
 C         0.046328         0.507866        -0.340810
 C         1.356166         0.000763        -0.020899
 C         1.800664        -1.389172         0.509399
 C         2.538153        -0.715039         1.737824
 C         2.525977         0.557641         0.936206
 O         2.838455         1.849208         1.228862
 C         2.822972         0.113845        -0.524781
 O         3.534622         1.032650        -1.351273
 C         2.944759        -1.405906        -0.539810
 H        -0.531927        -0.047101        -1.076647
 H        -0.548502         0.474990         0.578828
 H         0.128422         1.558985        -0.740633
 H         1.084469        -2.344730         0.672243
 H         1.773649        -0.652195         2.577938
 H         3.469889        -1.071485         2.155935
 H         3.741595         1.970439         0.770840
 H         3.150331         0.944842        -2.269922
 H         2.730909        -1.801662        -1.545444
 H         3.937443        -1.854294        -0.139844
