19
Iteration:  2850charge 0 multiplicity 1
 C         0.084394         0.664020        -0.363921
 C         1.381035         0.147120         0.172936
 C         1.839193        -1.197515         1.034977
 C         2.716716        -0.269137         1.940113
 C         2.642843         0.705896         0.789264
 O         3.230633         1.882968         0.758014
 C         2.686586        -0.141759        -0.499529
 O         3.130296         0.474552        -1.706845
 C         2.750631        -1.592954        -0.243667
 H        -0.641177         0.123602         0.319997
 H         0.030743         1.795493        -0.277053
 H        -0.153514         0.484788        -1.444008
 H         1.170590        -1.932094         1.296751
 H         2.140696         0.069180         2.750285
 H         3.613427        -0.669502         2.430795
 H         3.789273         1.899992        -0.094108
 H         2.499667         0.332211        -2.504480
 H         2.108984        -2.200535        -0.939485
 H         3.779466        -2.096224        -0.223809
