19
Iteration:  3317charge 0 multiplicity 1
 C         0.060562         0.572123        -0.277724
 C         1.401200         0.085403         0.089125
 C         1.711086        -1.221697         0.828078
 C         2.616688        -0.388955         1.840100
 C         2.626310         0.650944         0.793203
 O         3.214473         1.889048         0.948540
 C         2.770059        -0.091201        -0.509297
 O         3.309075         0.619439        -1.695203
 C         2.761676        -1.507706        -0.263136
 H        -0.381201         1.414882         0.338176
 H        -0.173726         0.820293        -1.336296
 H        -0.730986        -0.233338        -0.086401
 H         1.075696        -1.964477         1.175497
 H         2.140024         0.081069         2.745917
 H         3.495054        -0.726393         2.266923
 H         3.519406         2.281523         0.168970
 H         2.587811         0.420081        -2.335762
 H         2.357175        -2.110258        -1.044666
 H         3.700457        -1.989911         0.143613
