19
Iteration:  4150
 C         0.135600         0.769186        -0.203563
 C         1.434987         0.118071         0.164638
 C         1.726614        -1.173529         0.956365
 C         2.708377        -0.318105         1.851541
 C         2.763392         0.721699         0.761121
 O         3.065263         2.040033         0.757586
 C         2.715737        -0.196215        -0.591698
 O         3.225220         0.356785        -1.713382
 C         2.665395        -1.658545        -0.172645
 H        -0.329869         0.386226        -1.111431
 H        -0.538405         0.706689         0.642625
 H         0.418360         1.804271        -0.393885
 H         1.014870        -1.782161         1.580100
 H         2.011887         0.068418         2.604431
 H         3.638308        -0.761523         2.258240
 H         3.410772         2.290846        -0.155102
 H         3.544275        -0.376116        -2.433503
 H         2.140938        -2.307775        -0.821417
 H         3.564862        -2.212913         0.022904
