19
Iteration:  2982
 C         0.139950         0.815285        -0.217745
 C         1.392571         0.068220         0.173848
 C         1.858234        -1.293086         0.969591
 C         2.712280        -0.358750         1.852591
 C         2.680705         0.603456         0.701590
 O         2.942091         2.058378         0.795224
 C         2.709261        -0.172403        -0.612793
 O         3.273083         0.439332        -1.691376
 C         2.760875        -1.624001        -0.215364
 H         0.384897         1.910429         0.017561
 H        -0.289169         0.871631        -1.255252
 H        -0.654991         0.780554         0.554083
 H         1.211491        -1.996389         1.420962
 H         2.011776         0.067829         2.501918
 H         3.592566        -0.798372         2.317897
 H         3.818152         2.243883         0.600418
 H         2.924390         0.192964        -2.625314
 H         2.191966        -2.256561        -0.939203
 H         3.643748        -2.134167         0.012096
