19
Iteration:   247
 C         0.178640         0.574575        -0.433707
 C         1.469549         0.039265        -0.082169
 C         1.841048        -1.438056         0.384380
 C         2.519101        -0.834147         1.761609
 C         2.494430         0.490587         0.931390
 O         2.676778         1.735973         1.448899
 C         2.919794         0.127682        -0.536813
 O         3.418291         1.279140        -1.227265
 C         3.030472        -1.474085        -0.646218
 H        -0.625342         0.383830         0.292903
 H         0.230035         1.624431        -0.749614
 H        -0.197892        -0.138775        -1.261162
 H         0.865499        -2.235207         0.514666
 H         1.711130        -0.823211         2.573665
 H         3.531172        -1.282846         1.888246
 H         3.358398         2.120847         0.777441
 H         2.797265         1.326890        -2.024799
 H         2.818968        -1.794587        -1.674329
 H         3.878872        -1.924123        -0.302794
