19
Iteration:  3046
 C         0.057612         0.704081        -0.280846
 C         1.402782         0.110828         0.159404
 C         1.753352        -1.228179         0.913793
 C         2.702010        -0.298644         1.847185
 C         2.712946         0.669570         0.714149
 O         3.063369         1.943049         0.898588
 C         2.751855        -0.161020        -0.593654
 O         3.232699         0.490824        -1.682056
 C         2.805451        -1.659693        -0.195454
 H         0.121189         1.180045        -1.290646
 H        -0.810642         0.069024        -0.272243
 H        -0.218294         1.484101         0.462852
 H         1.014812        -1.862948         1.244756
 H         2.095791         0.174023         2.663694
 H         3.728122        -0.655277         2.195891
 H         3.736811         2.019633         0.259547
 H         2.514623         0.520761        -2.460319
 H         2.418843        -2.220652        -1.155072
 H         3.758222        -1.984028         0.206404
