19
Iteration:  4699
 C         0.008303         0.651211        -0.240731
 C         1.397061         0.225728         0.193765
 C         1.784908        -1.023599         1.198242
 C         2.813815        -0.057841         1.945753
 C         2.805907         0.669713         0.653527
 O         3.418381         1.961420         0.427833
 C         2.637678        -0.245584        -0.537550
 O         3.117088         0.152192        -1.782140
 C         2.459212        -1.745014        -0.069933
 H        -0.802076        -0.036979         0.179192
 H        -0.108513         1.528980         0.376429
 H        -0.050001         0.734632        -1.376636
 H         1.219602        -1.515980         1.995960
 H         2.105315         0.503287         2.697910
 H         3.830303        -0.437997         2.318361
 H         2.742018         2.611144         0.188966
 H         3.783698         0.896560        -1.487444
 H         1.789535        -2.195052        -0.760377
 H         3.375564        -2.304027        -0.109768
