19
Iteration:  4380charge 0 multiplicity 1
 C         0.095733         0.864351        -0.242563
 C         1.398379         0.127370         0.154275
 C         1.798334        -1.119574         0.985994
 C         2.753317        -0.233925         1.938693
 C         2.695645         0.673585         0.610883
 O         3.241353         2.023848         0.719976
 C         2.646112        -0.291025        -0.600471
 O         3.059817         0.280744        -1.796064
 C         2.740100        -1.755867        -0.042583
 H        -0.774686         0.601015         0.394686
 H         0.273902         1.905248        -0.123065
 H        -0.295006         0.639875        -1.263054
 H         1.034595        -1.668580         1.593353
 H         2.280535         0.198818         2.818665
 H         3.655582        -0.633553         2.197765
 H         2.936389         2.527704        -0.036102
 H         3.966736         0.384268        -1.607894
 H         2.142380        -2.536929        -0.589083
 H         3.753821        -2.165991         0.258740
