19
Iteration:  3330charge 0 multiplicity 1
 C        -0.012944         0.620132        -0.354905
 C         1.359795         0.137633         0.134662
 C         1.806176        -1.232153         0.904803
 C         2.621959        -0.441440         1.859726
 C         2.641894         0.664322         0.795663
 O         3.200331         1.905134         0.970115
 C         2.792485        -0.028087        -0.594778
 O         3.257198         0.678597        -1.710412
 C         2.792370        -1.649656        -0.166802
 H        -0.124487         1.638386         0.084393
 H         0.144841         0.800007        -1.441612
 H        -0.821829        -0.187355        -0.100306
 H         1.083421        -1.957409         1.265919
 H         1.935626        -0.266004         2.704420
 H         3.571574        -0.922744         1.997430
 H         3.421209         2.049070        -0.027233
 H         2.842850         0.371281        -2.536040
 H         2.252037        -2.179555        -0.970807
 H         3.687124        -2.211025         0.029082
