19
Iteration:  2231charge 0 multiplicity 1
 C         0.105661         0.753926        -0.316973
 C         1.323937         0.118879         0.178182
 C         1.941393        -1.298400         0.952397
 C         2.748776        -0.418183         1.908490
 C         2.585344         0.684664         0.779753
 O         3.040770         2.031984         0.752374
 C         2.606509        -0.167144        -0.564864
 O         3.324895         0.543012        -1.580119
 C         2.728564        -1.674200        -0.250977
 H         0.380295         1.013407        -1.367304
 H        -0.806881         0.081428        -0.332770
 H        -0.189614         1.713059         0.339451
 H         1.118334        -1.999785         1.322584
 H         2.214329        -0.162105         2.738082
 H         3.733483        -0.675455         2.106934
 H         3.619050         2.066094         0.041188
 H         2.839327         0.372037        -2.503162
 H         2.230390        -2.342289        -1.057226
 H         3.853678        -1.944528        -0.177071
