19
Iteration:  3154
 C         0.144314         0.691194        -0.273645
 C         1.405222         0.086113         0.120867
 C         1.789455        -1.206767         0.909352
 C         2.640678        -0.363184         1.866111
 C         2.670722         0.645214         0.760874
 O         3.080667         1.942573         0.932592
 C         2.758143        -0.082775        -0.560220
 O         3.220318         0.418411        -1.716541
 C         2.780162        -1.542261        -0.284623
 H        -0.465376        -0.052094        -0.873344
 H        -0.480161         0.931035         0.589965
 H         0.008340         1.597119        -0.920568
 H         1.190406        -1.961687         1.247671
 H         2.110177         0.089378         2.774755
 H         3.533954        -0.726774         2.432793
 H         3.714843         2.318376         0.385498
 H         2.399344         0.608564        -2.342519
 H         2.417348        -2.175130        -1.142686
 H         3.820514        -1.826617         0.019088
