19
Iteration:  3031charge 0 multiplicity 1
 C         0.155351         0.756789        -0.207204
 C         1.423057         0.083428         0.102015
 C         1.788054        -1.233595         0.914455
 C         2.614960        -0.426085         1.864942
 C         2.704178         0.647525         0.737133
 O         3.065581         2.105268         0.903071
 C         2.683746        -0.165663        -0.602399
 O         3.228821         0.472945        -1.783842
 C         2.807195        -1.666255        -0.169350
 H         0.136673         1.322060        -1.112488
 H        -0.494343        -0.072670        -0.520703
 H        -0.323499         1.414446         0.504281
 H         1.082953        -2.039281         1.361086
 H         2.000715         0.027540         2.709933
 H         3.491715        -0.991183         2.185907
 H         3.818248         2.627337         0.402402
 H         2.570853         0.350357        -2.471283
 H         2.392583        -2.457568        -0.746912
 H         3.822857        -2.069758         0.193305
