19
Iteration:  1304charge 0 multiplicity 1
 C         0.127389         0.655131        -0.356227
 C         1.415455         0.072033         0.057466
 C         1.772727        -1.329632         0.686041
 C         2.592633        -0.598180         1.740624
 C         2.571590         0.580944         0.857590
 O         2.933005         1.865457         1.133099
 C         2.759548         0.034113        -0.579983
 O         3.294324         0.807789        -1.549128
 C         2.992564        -1.489967        -0.318412
 H        -0.435292         1.031783         0.489714
 H         0.271746         1.530008        -0.973359
 H        -0.620793        -0.081726        -0.829156
 H         1.025679        -2.101354         1.028757
 H         1.928364        -0.618796         2.681951
 H         3.587327        -1.156230         2.042128
 H         3.810927         2.041123         0.662208
 H         2.620823         0.746972        -2.354661
 H         2.810478        -2.111314        -1.168628
 H         3.904399        -1.823290         0.133083
