19
Iteration:   440
 C         0.129186         0.584317        -0.329822
 C         1.450561        -0.039394         0.016693
 C         1.913738        -1.511617         0.432977
 C         2.375692        -0.701509         1.739654
 C         2.515111         0.530072         0.882997
 O         2.764197         1.796002         1.378422
 C         2.814390         0.080209        -0.565339
 O         3.489484         1.123190        -1.288049
 C         3.056939        -1.403500        -0.641388
 H         0.355750         1.614580        -0.619651
 H        -0.481501         0.041938        -1.041602
 H        -0.531792         0.739411         0.575196
 H         1.234102        -2.444543         0.356689
 H         1.591151        -0.653842         2.496285
 H         3.265802        -0.955022         2.260017
 H         2.855198         2.288991         0.488955
 H         3.235028         1.136265        -2.240424
 H         2.672324        -1.784260        -1.571665
 H         4.006778        -1.832331        -0.460419
