19
Iteration:  4714
 C         0.040048         0.685152        -0.236153
 C         1.439562         0.186033         0.282682
 C         1.788068        -1.015647         1.158757
 C         2.810234        -0.142601         1.948928
 C         2.792827         0.773568         0.683894
 O         3.418224         1.960681         0.298879
 C         2.580207        -0.297789        -0.531890
 O         3.099527         0.158551        -1.705063
 C         2.504602        -1.675835        -0.089501
 H        -0.548109        -0.272491        -0.325796
 H        -0.533146         1.425511         0.346938
 H         0.211935         1.031842        -1.286577
 H         0.891547        -1.555868         1.535969
 H         2.341214         0.378747         2.869652
 H         3.725445        -0.661167         2.332339
 H         2.729068         2.597684         0.435012
 H         3.704156         0.825147        -1.593650
 H         1.698927        -2.247865        -0.577579
 H         3.365770        -2.282171         0.232177
