19
Iteration:  2593charge 0 multiplicity 1
 C         0.086703         0.740047        -0.307937
 C         1.403423         0.169289         0.102482
 C         1.843846        -1.142574         1.033857
 C         2.658545        -0.265777         1.935546
 C         2.662101         0.708391         0.785108
 O         3.240866         1.950876         0.819052
 C         2.748969        -0.188310        -0.557765
 O         3.080362         0.333535        -1.829011
 C         2.806321        -1.612702        -0.179501
 H        -0.302420         0.437124        -1.279716
 H        -0.647711         0.326301         0.368069
 H        -0.178276         1.817301        -0.145319
 H         1.164677        -1.927483         1.369718
 H         2.187633         0.107281         2.860590
 H         3.498405        -0.732968         2.308493
 H         3.504172         2.122128        -0.033122
 H         2.328116         0.178106        -2.301849
 H         2.370105        -2.480751        -0.844949
 H         3.750594        -1.984194         0.202294
