19
Iteration:  4339
 C         0.047477         0.734936        -0.250986
 C         1.390908         0.104246         0.189715
 C         1.807736        -1.109362         1.057026
 C         2.691975        -0.247109         1.974258
 C         2.762799         0.705624         0.774678
 O         3.265439         1.984107         0.621599
 C         2.657272        -0.192415        -0.532265
 O         3.096033         0.335697        -1.794855
 C         2.674546        -1.620795        -0.172204
 H        -0.582103         1.228721         0.580890
 H         0.190184         1.386723        -1.062795
 H        -0.636237        -0.069549        -0.704864
 H         1.021743        -1.839062         1.263591
 H         2.014684         0.148464         2.830872
 H         3.538435        -0.701508         2.566737
 H         3.959246         1.938712        -0.112525
 H         4.015107         0.004958        -2.156410
 H         2.038404        -2.174649        -0.794798
 H         3.588513        -2.225700        -0.036429
