19
Iteration:  4738charge 0 multiplicity 1
 C         0.075648         0.779812        -0.326723
 C         1.383668         0.137828         0.262392
 C         1.715924        -1.005867         1.258108
 C         2.841138        -0.180886         1.897680
 C         2.732111         0.733713         0.670427
 O         3.360648         1.850903         0.248608
 C         2.635420        -0.240409        -0.470589
 O         3.073190         0.188508        -1.787024
 C         2.605591        -1.668619         0.035735
 H        -0.403424         0.077076        -0.982167
 H        -0.601593         0.926013         0.611389
 H         0.192553         1.743549        -0.859714
 H         1.055900        -1.505085         1.947886
 H         2.472319         0.216450         2.831845
 H         3.789089        -0.644101         2.131617
 H         3.119757         2.479021         1.002082
 H         3.460126         1.171657        -1.869630
 H         1.980136        -2.336339        -0.676032
 H         3.449356        -2.130545         0.615691
