19
Iteration:  1205
 C         0.077543         0.568682        -0.352646
 C         1.369544        -0.003451         0.037805
 C         1.759032        -1.355489         0.673229
 C         2.579999        -0.517118         1.805202
 C         2.612518         0.574684         0.836769
 O         2.985550         1.873689         1.147648
 C         2.709838        -0.036120        -0.627602
 O         3.354843         0.908875        -1.430220
 C         2.954206        -1.533600        -0.418470
 H         0.052774         1.596726        -0.012532
 H        -0.145105         0.704434        -1.414886
 H        -0.804889         0.179400         0.239595
 H         1.001072        -2.093826         0.851958
 H         2.011084        -0.241121         2.744084
 H         3.553709        -0.894039         2.164429
 H         3.820440         2.103836         0.585952
 H         2.990293         0.927084        -2.455739
 H         2.647458        -1.995474        -1.360725
 H         3.998641        -1.861859        -0.165915
