19
Iteration:   941
 C         0.080375         0.730555        -0.412544
 C         1.360299         0.054164         0.074955
 C         1.867153        -1.497613         0.589894
 C         2.658192        -0.691517         1.794345
 C         2.602572         0.609267         0.887540
 O         2.786306         1.921610         1.196766
 C         2.794805         0.072897        -0.486865
 O         3.389558         0.820839        -1.430150
 C         2.919217        -1.463373        -0.482395
 H        -0.595503        -0.145054        -0.584717
 H        -0.403872         1.465652         0.322337
 H         0.066240         1.261149        -1.366338
 H         1.191120        -2.350316         0.682265
 H         1.945786        -0.590492         2.706074
 H         3.722783        -1.014327         2.115284
 H         3.346733         2.304543         0.570911
 H         3.213816         0.587237        -2.281366
 H         2.616982        -1.952810        -1.503859
 H         4.012287        -1.895368        -0.391983
