19
Iteration:  4740
 C         0.051399         0.802381        -0.334977
 C         1.391446         0.115174         0.255319
 C         1.730251        -1.001704         1.265753
 C         2.850443        -0.167575         1.906639
 C         2.736926         0.734595         0.666613
 O         3.357730         1.850596         0.260730
 C         2.626021        -0.249860        -0.480940
 O         3.069284         0.189222        -1.779439
 C         2.614352        -1.668626         0.029921
 H        -0.380047         0.143619        -1.041800
 H        -0.622081         0.850544         0.598107
 H         0.244113         1.761036        -0.828411
 H         1.034209        -1.473828         1.925109
 H         2.460299         0.236865         2.752349
 H         3.766889        -0.658409         2.131905
 H         3.156988         2.409277         1.014294
 H         3.389211         1.099001        -1.867459
 H         2.002684        -2.358557        -0.648962
 H         3.435157        -2.123344         0.627878
