19
Iteration:  2739charge 0 multiplicity 1
 C         0.063639         0.703656        -0.062759
 C         1.359475         0.085625         0.066549
 C         1.728778        -1.218834         1.024565
 C         2.553311        -0.237795         1.880939
 C         2.788833         0.639970         0.719281
 O         3.145992         1.983638         0.727022
 C         2.767332        -0.132587        -0.595707
 O         3.274117         0.411251        -1.799882
 C         2.791481        -1.607308        -0.136807
 H        -0.687974         0.151772        -0.705690
 H        -0.483469         0.756085         0.923008
 H         0.107118         1.795100        -0.469751
 H         0.858914        -1.858725         1.259533
 H         2.007614         0.250813         2.703310
 H         3.582168        -0.651735         2.248634
 H         3.678133         2.116493        -0.029719
 H         2.823396         0.025531        -2.632878
 H         2.351780        -2.223140        -1.053303
 H         3.739600        -2.160079         0.255370
