19
Iteration:  4940
 C         0.118685         0.792256        -0.207247
 C         1.381248         0.204232         0.279662
 C         1.827813        -1.030409         1.234061
 C         2.861113        -0.011780         1.875262
 C         2.807097         0.770340         0.559092
 O         3.317828         1.990841         0.412338
 C         2.581623        -0.294232        -0.497609
 O         2.990140        -0.029427        -1.872170
 C         2.560697        -1.637680         0.124921
 H        -0.653282         0.138039        -0.653513
 H        -0.301124         1.478083         0.500954
 H         0.513431         1.365906        -1.040012
 H         1.089938        -1.517241         1.934593
 H         2.354941         0.560352         2.595676
 H         3.800696        -0.340673         2.321880
 H         3.917057         1.891662        -0.365857
 H         2.494255        -0.625555        -2.351753
 H         1.981164        -2.421408        -0.345283
 H         3.542305        -2.119359         0.418999
