19
Iteration:  1219
 C         0.054304         0.626353        -0.378867
 C         1.357203         0.058128         0.054002
 C         1.799552        -1.324999         0.656643
 C         2.696415        -0.633392         1.825836
 C         2.580281         0.569701         0.837562
 O         2.958262         1.892397         1.124502
 C         2.753668         0.004746        -0.604034
 O         3.353073         0.936609        -1.458513
 C         2.863519        -1.541119        -0.376252
 H        -0.063353         1.603201         0.040332
 H         0.014336         0.568924        -1.429951
 H        -0.789811        -0.089405        -0.172002
 H         1.092194        -2.208016         0.915144
 H         2.126293        -0.532748         2.629393
 H         3.615048        -1.059711         1.976949
 H         3.556417         2.184412         0.471505
 H         3.151551         0.699434        -2.294826
 H         2.600091        -2.335728        -1.125979
 H         3.780379        -1.879175         0.260016
