19
Iteration:  2498charge 0 multiplicity 1
 C         0.027419         0.745058        -0.146569
 C         1.411447         0.140500         0.127092
 C         1.798813        -1.163510         0.923942
 C         2.763683        -0.301215         1.868506
 C         2.683535         0.676614         0.735739
 O         3.034904         1.963940         0.681268
 C         2.697640        -0.229892        -0.635269
 O         3.357128         0.471823        -1.627111
 C         2.674944        -1.668794        -0.133274
 H        -0.689032        -0.066125         0.139095
 H        -0.137899         1.686891         0.430510
 H        -0.243353         1.023871        -1.216029
 H         1.108804        -1.849250         1.348912
 H         2.289804         0.064246         2.782993
 H         3.784618        -0.907655         2.165106
 H         3.432564         2.227408        -0.242279
 H         2.835722         0.211377        -2.482479
 H         2.257841        -2.412553        -0.758490
 H         3.728666        -2.020177         0.172632
