19
Iteration:  3421
 C         0.145492         0.716832        -0.269164
 C         1.401594         0.029956         0.121350
 C         1.774086        -1.329750         0.834910
 C         2.618732        -0.345373         1.844613
 C         2.630774         0.649798         0.789628
 O         2.988339         1.918422         0.983074
 C         2.756584        -0.102899        -0.599515
 O         3.332755         0.578134        -1.669992
 C         2.814535        -1.574550        -0.282519
 H         0.369848         1.549057        -0.980876
 H        -0.598337         0.067099        -0.815754
 H        -0.410253         1.235719         0.558136
 H         1.033017        -2.029384         1.361362
 H         2.054210         0.040184         2.659263
 H         3.665491        -0.730712         2.045315
 H         3.825551         2.135846         0.447869
 H         2.535056         0.714270        -2.307014
 H         2.327209        -2.064106        -1.185263
 H         3.687270        -2.080953         0.032026
