19
Iteration:  4092
 C        -0.046440         0.685152        -0.311562
 C         1.356571         0.155069         0.180426
 C         1.762405        -1.277987         0.992089
 C         2.597164        -0.297743         1.899523
 C         2.699957         0.715673         0.783889
 O         3.342441         1.886091         0.605671
 C         2.668616        -0.132998        -0.523248
 O         3.201707         0.512280        -1.610185
 C         2.767534        -1.568668        -0.158667
 H        -0.939700         0.107501        -0.105592
 H        -0.304252         1.736076         0.167479
 H        -0.042732         0.864308        -1.372635
 H         1.255970        -2.191309         1.340639
 H         2.089263        -0.012080         2.791043
 H         3.530408        -0.662984         2.271171
 H         3.977995         1.729604        -0.082305
 H         3.371233        -0.017615        -2.304003
 H         2.235838        -2.192499        -0.943070
 H         3.778078        -1.759571         0.051398
