19
Iteration:  3052charge 0 multiplicity 1
 C         0.057567         0.700489        -0.291908
 C         1.392690         0.066236         0.132743
 C         1.803019        -1.140661         0.923619
 C         2.733995        -0.293397         1.897062
 C         2.627934         0.635287         0.734354
 O         3.095151         1.879638         0.859039
 C         2.770137        -0.172089        -0.553178
 O         3.241375         0.511098        -1.669947
 C         2.753622        -1.601034        -0.244111
 H        -0.050415         1.103137        -1.306926
 H        -0.859091         0.043174        -0.303618
 H        -0.225368         1.555757         0.332847
 H         1.151191        -2.001605         1.360781
 H         2.034375         0.089420         2.656619
 H         3.712545        -0.626797         2.161346
 H         3.781290         2.218001         0.235257
 H         2.595514         0.503325        -2.355934
 H         2.432018        -2.122528        -1.083180
 H         3.705814        -2.042294         0.188022
