19
Iteration:  4731charge 0 multiplicity 1
 C         0.138138         0.703048        -0.271999
 C         1.340907         0.237499         0.264539
 C         1.695778        -1.034645         1.206019
 C         2.815219        -0.193166         1.910073
 C         2.720848         0.702243         0.685809
 O         3.370081         1.885865         0.240161
 C         2.671844        -0.219057        -0.481534
 O         3.081364         0.185790        -1.798155
 C         2.560092        -1.669823         0.076274
 H        -0.449632        -0.076943        -0.781885
 H        -0.514527         1.151594         0.483877
 H         0.171862         1.574636        -0.928992
 H         1.073938        -1.635348         1.872922
 H         2.530419         0.219131         2.879720
 H         3.810172        -0.647180         2.053504
 H         3.125109         2.683151         0.716393
 H         3.527743         1.034735        -1.623274
 H         2.010352        -2.265613        -0.647133
 H         3.505463        -2.201096         0.297999
