19
Iteration:   358
 C         0.104928         0.605442        -0.493533
 C         1.434400         0.027489        -0.031038
 C         1.935608        -1.464411         0.515904
 C         2.494953        -0.776270         1.798248
 C         2.458451         0.487701         0.976656
 O         2.718561         1.760447         1.449481
 C         2.890505         0.109298        -0.541942
 O         3.463193         1.120047        -1.347568
 C         3.007069        -1.350673        -0.693253
 H        -0.138880         0.350390        -1.556951
 H        -0.673563        -0.023966        -0.008461
 H        -0.037381         1.648421        -0.200635
 H         1.263747        -2.395567         0.575789
 H         1.653481        -0.741936         2.539435
 H         3.496526        -1.143003         2.141381
 H         3.519788         2.108695         0.899907
 H         2.964364         1.275081        -2.105170
 H         2.519207        -1.679980        -1.620003
 H         3.939616        -1.824251        -0.548716
