19
Iteration:  2569charge 0 multiplicity 1
 C         0.113267         0.648686        -0.207309
 C         1.351247         0.038289         0.187681
 C         1.750608        -1.134748         0.975794
 C         2.683858        -0.262456         1.875136
 C         2.798028         0.673568         0.685823
 O         3.174217         2.007917         0.746516
 C         2.705832        -0.160376        -0.588133
 O         3.182026         0.453078        -1.748821
 C         2.710283        -1.669499        -0.114414
 H        -0.318759         0.254428        -1.167729
 H        -0.718354         0.728504         0.548557
 H         0.279893         1.730057        -0.451602
 H         1.142445        -1.949382         1.406145
 H         2.152339         0.271024         2.737748
 H         3.589570        -0.712100         2.221478
 H         3.803816         2.208263        -0.038062
 H         2.465527         0.373568        -2.468296
 H         2.304391        -2.467409        -0.858584
 H         3.571931        -2.101350         0.419868
