19
Iteration:   200
 C         0.020203         0.647329        -0.386807
 C         1.354173         0.001028        -0.047021
 C         1.961112        -1.474902         0.421941
 C         2.482943        -0.831263         1.685087
 C         2.385807         0.468373         0.916904
 O         2.639580         1.674553         1.504342
 C         2.887147         0.172761        -0.555068
 O         3.577772         1.117394        -1.285136
 C         3.129018        -1.295126        -0.677763
 H        -0.137427         1.453350         0.287055
 H         0.005613         1.072542        -1.391665
 H        -0.848786        -0.031091        -0.169025
 H         1.488144        -2.409356         0.412579
 H         1.734927        -0.790826         2.465347
 H         3.560358        -1.065276         1.964697
 H         3.335648         2.199679         1.089138
 H         3.166196         1.307890        -2.232899
 H         2.780706        -1.725417        -1.615222
 H         4.113742        -1.623397        -0.484595
