19
Iteration:  1575
 C         0.057459         0.689405        -0.230636
 C         1.256113        -0.016104         0.009097
 C         1.888022        -1.345661         0.774221
 C         2.568345        -0.453642         1.830522
 C         2.547639         0.573767         0.814394
 O         3.006396         1.908241         1.098339
 C         2.705129        -0.032710        -0.595521
 O         3.427169         0.762573        -1.609234
 C         2.936690        -1.519116        -0.383971
 H         0.152559         1.423989        -1.041719
 H        -0.730376        -0.043151        -0.654736
 H        -0.288099         1.295486         0.580017
 H         1.325483        -2.274713         1.115874
 H         2.049380        -0.122542         2.816768
 H         3.479247        -0.943619         2.179475
 H         3.709369         2.154006         0.363129
 H         2.895581         0.480004        -2.497151
 H         2.554302        -2.064464        -1.207975
 H         3.729797        -2.069558         0.003101
