19
Iteration:  2789charge 0 multiplicity 1
 C         0.117222         0.785956        -0.285448
 C         1.318907         0.045555         0.102709
 C         1.761513        -1.163900         1.035434
 C         2.849823        -0.353500         1.902192
 C         2.686936         0.642760         0.694640
 O         3.055277         1.993580         0.723367
 C         2.735115        -0.182756        -0.558446
 O         3.227325         0.475262        -1.649235
 C         2.711368        -1.633330        -0.141165
 H        -0.807947         0.278792        -0.162498
 H        -0.007527         1.579779         0.427507
 H         0.147595         1.113364        -1.323260
 H         1.142585        -2.086227         1.347984
 H         2.316480         0.063961         2.808626
 H         3.718293        -0.998850         2.091611
 H         3.528962         2.275480        -0.122672
 H         2.819849         0.162870        -2.414944
 H         2.111568        -2.188331        -0.798718
 H         3.664431        -2.077035         0.053087
