19
Iteration:  4513charge 0 multiplicity 1
 C         0.115127         0.578673        -0.186188
 C         1.412355         0.152571         0.163218
 C         1.664339        -1.031553         1.059019
 C         2.695223        -0.135667         1.961477
 C         2.792310         0.748895         0.656796
 O         3.414588         1.890915         0.522902
 C         2.739345        -0.279483        -0.566085
 O         3.068649         0.344640        -1.811285
 C         2.593433        -1.658901        -0.033307
 H        -0.205761         0.850674        -1.318902
 H        -0.572949        -0.082303         0.215143
 H        -0.041173         1.594083         0.349500
 H         0.804792        -1.685818         1.264656
 H         2.094729         0.406263         2.750064
 H         3.404868        -0.770728         2.443093
 H         2.720930         2.511056         0.312835
 H         3.932604         0.766996        -1.695197
 H         1.914308        -2.167924        -0.690552
 H         3.408076        -2.380849         0.395851
