19
Iteration:   660
 C        -0.024812         0.607575        -0.359762
 C         1.289344         0.039756         0.041968
 C         1.959317        -1.389586         0.567545
 C         2.565659        -0.638042         1.776965
 C         2.522980         0.570819         0.853945
 O         2.806414         1.838892         1.306324
 C         2.751051         0.041700        -0.656950
 O         3.556544         0.923127        -1.298415
 C         2.976924        -1.429746        -0.611505
 H        -0.210180         0.349272        -1.390822
 H        -0.814536         0.076036         0.162287
 H        -0.107617         1.745775        -0.284691
 H         1.253646        -2.396138         0.687311
 H         1.841661        -0.618517         2.664618
 H         3.533542        -1.013159         2.131402
 H         3.604230         2.046484         0.874991
 H         3.298958         1.118711        -2.247697
 H         2.521502        -1.994298        -1.458767
 H         4.110823        -1.812757        -0.497052
