19
Iteration:  3479charge 0 multiplicity 1
 C         0.007263         0.652315        -0.131596
 C         1.407273         0.028215         0.024858
 C         1.719120        -1.262109         0.797754
 C         2.567219        -0.448049         1.841618
 C         2.652272         0.633939         0.781332
 O         3.031922         1.971419         0.871265
 C         2.817624        -0.062154        -0.584050
 O         3.402774         0.643516        -1.643209
 C         2.784078        -1.522652        -0.279095
 H        -0.057407         1.204065        -1.087477
 H        -0.776584        -0.108817        -0.092419
 H        -0.111100         1.251948         0.726575
 H         0.961035        -1.886428         1.149077
 H         2.061013         0.018711         2.782951
 H         3.391136        -1.028634         2.424136
 H         3.918125         2.035667         0.546263
 H         3.526680         0.058786        -2.435893
 H         2.345496        -2.153138        -1.039509
 H         3.655119        -2.142164         0.053771
