19
Iteration:  2563charge 0 multiplicity 1
 C         0.107949         0.671667        -0.214384
 C         1.329264         0.066013         0.183935
 C         1.784619        -1.169041         1.022486
 C         2.720056        -0.213501         1.896307
 C         2.783126         0.664988         0.679828
 O         3.145693         2.004967         0.723903
 C         2.699212        -0.207700        -0.574551
 O         3.210598         0.473205        -1.704641
 C         2.702630        -1.679137        -0.189365
 H        -0.408159         0.261962        -1.087352
 H        -0.570787         0.758109         0.610361
 H         0.192789         1.671700        -0.656544
 H         1.077522        -1.866074         1.444360
 H         2.060880         0.230035         2.595471
 H         3.568358        -0.962229         2.231958
 H         3.809436         2.081936        -0.048016
 H         2.532185         0.348635        -2.466312
 H         2.198469        -2.416661        -0.743262
 H         3.647697        -2.042363         0.249484
