19
Iteration:  2481
 C         0.043807         0.713082        -0.113845
 C         1.381067         0.063704         0.071444
 C         1.800426        -1.176534         1.027883
 C         2.650179        -0.240207         1.893252
 C         2.605614         0.661230         0.718366
 O         3.122503         2.003895         0.780702
 C         2.729076        -0.168209        -0.590610
 O         3.321827         0.441942        -1.777995
 C         2.792524        -1.695340        -0.217988
 H        -0.704966         0.051601         0.349916
 H         0.107011         1.753826         0.276680
 H        -0.041267         0.922266        -1.167822
 H         0.951685        -1.784323         1.496421
 H         2.121485         0.064822         2.855136
 H         3.572715        -0.484554         2.242287
 H         3.726157         2.048091        -0.026271
 H         2.696233         0.332745        -2.619933
 H         2.166516        -2.283605        -0.984404
 H         3.594888        -2.333768         0.158642
