19
Iteration:  3725charge 0 multiplicity 1
 C         0.013543         0.744413        -0.179420
 C         1.347234         0.084339         0.141448
 C         1.812335        -1.227798         0.871615
 C         2.606150        -0.334969         1.870513
 C         2.665020         0.634951         0.709113
 O         3.101190         1.952021         0.891959
 C         2.638433        -0.155418        -0.607745
 O         3.352959         0.519629        -1.629962
 C         2.825346        -1.614119        -0.309728
 H        -0.835488         0.283625         0.265511
 H         0.148862         1.741588         0.110730
 H        -0.024326         0.753986        -1.293056
 H         1.078907        -2.016608         1.328016
 H         1.956822         0.200742         2.625288
 H         3.619631        -0.673797         2.128216
 H         3.812433         1.948604         0.286639
 H         3.128868         0.051810        -2.482946
 H         2.443525        -2.275531        -1.052130
 H         3.833018        -1.823327         0.036517
