19
Iteration:  3808
 C         0.118728         0.771203        -0.455745
 C         1.359154         0.015102         0.125350
 C         1.839537        -1.241777         0.988650
 C         2.741619        -0.308485         1.912799
 C         2.590810         0.573355         0.790882
 O         3.210837         1.937010         0.880542
 C         2.695082        -0.127621        -0.576969
 O         3.143992         0.603824        -1.622825
 C         2.721997        -1.613452        -0.205581
 H        -0.377395         0.184862        -1.258253
 H        -0.721825         0.899895         0.314042
 H         0.415815         1.746254        -0.839868
 H         1.043603        -1.945055         1.307221
 H         2.233869        -0.148033         2.867107
 H         3.753723        -0.626760         2.234400
 H         3.655763         2.039349        -0.014978
 H         2.841566         0.054501        -2.470949
 H         2.306637        -2.220292        -1.057871
 H         3.693974        -2.140226        -0.056203
