19
Iteration:  2720charge 0 multiplicity 1
 C         0.054765         0.708656        -0.055351
 C         1.385193         0.133333         0.099533
 C         1.784451        -1.151047         0.900567
 C         2.641486        -0.303867         1.882400
 C         2.666165         0.686953         0.633746
 O         3.160904         2.016921         0.706893
 C         2.746310        -0.206567        -0.614103
 O         3.290598         0.428729        -1.704823
 C         2.745735        -1.700270        -0.098203
 H        -0.469067         0.353620        -0.964067
 H        -0.553113         0.247444         0.740434
 H         0.082274         1.749707        -0.134730
 H         1.012849        -1.691554         1.390195
 H         2.000738         0.298617         2.468363
 H         3.596438        -0.759730         2.340285
 H         3.624649         2.099868        -0.078911
 H         2.638759         0.354592        -2.431480
 H         2.192703        -2.421114        -0.640457
 H         3.695235        -2.054167         0.376757
