19
Iteration:  1525
 C         0.114907         0.613524        -0.326288
 C         1.447096         0.068169         0.147097
 C         1.751433        -1.290788         0.747556
 C         2.647174        -0.634556         1.840205
 C         2.650196         0.567044         0.863001
 O         2.891621         2.000339         0.961583
 C         2.857235        -0.063478        -0.559659
 O         3.334077         0.869859        -1.552189
 C         2.813110        -1.588074        -0.363155
 H         0.083813         0.782022        -1.420604
 H        -0.741181         0.039717        -0.121483
 H        -0.029146         1.667551         0.135613
 H         0.882962        -1.881262         0.948994
 H         2.055652        -0.571231         2.708877
 H         3.595582        -1.219514         2.134295
 H         3.615862         2.236734         0.447990
 H         2.891092         0.694281        -2.321390
 H         2.269577        -2.197981        -1.180295
 H         3.718544        -2.209405         0.033212
