19
Iteration:  2519
 C         0.059445         0.728396        -0.177895
 C         1.301516         0.052924         0.256857
 C         1.728570        -1.201570         1.057788
 C         2.762226        -0.396154         1.847417
 C         2.692798         0.685440         0.700735
 O         3.066768         2.014161         0.560860
 C         2.682529        -0.157736        -0.551803
 O         3.387813         0.478128        -1.566565
 C         2.726743        -1.646933        -0.225193
 H        -0.823133         0.123490        -0.302946
 H        -0.172381         1.529441         0.497982
 H         0.068930         1.216680        -1.172638
 H         0.993830        -1.785301         1.550504
 H         2.311890         0.107496         2.658843
 H         3.879579        -0.716251         2.078749
 H         3.363079         2.130076        -0.333171
 H         3.012293         0.222498        -2.460407
 H         2.224273        -2.112481        -1.010549
 H         3.751643        -2.053417        -0.215002
