19
Iteration:  1190
 C         0.025949         0.648143        -0.301919
 C         1.391085         0.036621         0.010644
 C         1.887483        -1.347928         0.725199
 C         2.458037        -0.563504         1.841734
 C         2.555705         0.565895         0.793219
 O         2.992353         1.848608         1.132438
 C         2.834459        -0.025403        -0.509502
 O         3.363905         0.888223        -1.490675
 C         2.961142        -1.489270        -0.531101
 H        -0.024584         1.796685        -0.229352
 H        -0.254044         0.283114        -1.381223
 H        -0.641010         0.155223         0.370392
 H         1.326556        -2.239771         1.038404
 H         1.544804        -0.257644         2.638858
 H         3.430025        -0.984223         2.433162
 H         3.744237         2.035294         0.485774
 H         2.775950         0.850832        -2.266631
 H         2.461228        -2.091397        -1.294970
 H         3.900639        -1.909937        -0.298774
