19
Iteration:  1142
 C         0.032959         0.679485        -0.313791
 C         1.434341         0.100891        -0.001101
 C         1.830211        -1.357995         0.638719
 C         2.615231        -0.608175         1.750428
 C         2.642559         0.558879         0.825148
 O         2.820791         1.856560         1.180662
 C         2.815257        -0.008028        -0.575469
 O         3.406452         0.852942        -1.456680
 C         2.912443        -1.525490        -0.379890
 H         0.103176         1.418642        -1.092686
 H        -0.628391        -0.065254        -0.700278
 H        -0.357842         1.226803         0.605544
 H         1.090984        -2.198358         0.864315
 H         2.012188        -0.450589         2.594716
 H         3.560689        -1.068379         2.054578
 H         3.340369         2.308794         0.416950
 H         2.826018         0.939242        -2.339035
 H         2.551497        -2.104256        -1.247651
 H         3.797524        -2.113572         0.037812
