19
Iteration:  1260
 C         0.222292         0.618991        -0.373636
 C         1.415944        -0.006594         0.128170
 C         1.935936        -1.368477         0.702150
 C         2.608468        -0.580588         1.824098
 C         2.529836         0.614907         0.865110
 O         2.927275         1.941149         1.165407
 C         2.742919        -0.028401        -0.523929
 O         3.366423         0.841613        -1.495434
 C         2.767521        -1.543405        -0.553857
 H        -0.174535         1.476768         0.159353
 H         0.435310         0.995189        -1.385816
 H        -0.702143        -0.122382        -0.348194
 H         1.198306        -2.152404         1.048758
 H         1.741867        -0.296793         2.607665
 H         3.543410        -0.851980         2.524885
 H         3.135896         2.346720         0.210127
 H         2.818806         0.883278        -2.475500
 H         2.230473        -1.944005        -1.391611
 H         3.729913        -2.017776        -0.376444
