19
Iteration:   389charge 0 multiplicity 1
 C         0.097474         0.640088        -0.382022
 C         1.407706         0.004622         0.047930
 C         1.852983        -1.408464         0.429120
 C         2.538618        -0.892321         1.650664
 C         2.473260         0.547403         0.947047
 O         2.683956         1.824253         1.325771
 C         2.840901         0.126849        -0.517707
 O         3.461435         1.070249        -1.275996
 C         3.083860        -1.364729        -0.586976
 H         0.187722         1.011806        -1.374577
 H        -0.662970        -0.135528        -0.377824
 H        -0.332531         1.542695         0.225108
 H         1.163225        -2.359256         0.509565
 H         1.788793        -1.009009         2.558673
 H         3.545128        -1.396767         1.952869
 H         3.340341         2.004250         0.706414
 H         3.245319         1.112216        -2.305877
 H         3.063269        -1.972127        -1.609653
 H         4.116545        -1.623996        -0.019901
