19
Iteration:  1724charge 0 multiplicity 1
 C         0.120047         0.600238        -0.284147
 C         1.416300        -0.011864         0.107361
 C         1.858278        -1.372662         0.872003
 C         2.562872        -0.378878         1.909142
 C         2.595694         0.646204         0.752951
 O         3.046819         1.923417         1.069502
 C         2.799101        -0.042823        -0.619585
 O         3.349368         0.703400        -1.660917
 C         2.769586        -1.571178        -0.399281
 H        -0.576430         0.460246         0.581693
 H         0.244147         1.677227        -0.316015
 H        -0.292573         0.393008        -1.314901
 H         0.995916        -2.086836         0.958556
 H         1.807161        -0.062237         2.508256
 H         3.424494        -0.614370         2.471934
 H         3.213995         2.453449         0.320884
 H         2.726228         0.797959        -2.336828
 H         2.215229        -2.114389        -1.190046
 H         3.776268        -2.049669        -0.182583
