19
Iteration:   486charge 0 multiplicity 1
 C         0.088791         0.581570        -0.449640
 C         1.402428        -0.021746         0.015136
 C         1.832537        -1.441434         0.401649
 C         2.611608        -0.729697         1.735415
 C         2.521378         0.526048         0.878179
 O         2.758567         1.846353         1.420634
 C         2.803621         0.109685        -0.541199
 O         3.467833         1.042527        -1.360528
 C         2.968315        -1.384363        -0.544295
 H        -0.164516         1.472872         0.034170
 H         0.152315         0.652176        -1.503875
 H        -0.826760        -0.143962        -0.297872
 H         1.185659        -2.392100         0.654051
 H         1.856379        -0.518318         2.550321
 H         3.505278        -1.123823         2.183954
 H         3.743363         1.946385         1.373934
 H         2.839021         1.217852        -2.165938
 H         2.798999        -1.879796        -1.527223
 H         3.867157        -1.808251        -0.094770
