19
Iteration:  4831charge 0 multiplicity 1
 C         0.115448         0.841634        -0.146057
 C         1.369627         0.121303         0.183673
 C         1.781674        -0.993396         1.222616
 C         2.858304        -0.011814         1.905448
 C         2.784305         0.688241         0.590277
 O         3.310767         2.035868         0.432435
 C         2.624771        -0.317989        -0.580501
 O         3.057380         0.020622        -1.859184
 C         2.543176        -1.747018         0.051869
 H         0.222251         1.985407        -0.001994
 H        -0.256361         0.689008        -1.140932
 H        -0.784333         0.603367         0.436859
 H         1.089520        -1.620033         1.881797
 H         2.524590         0.497919         2.789592
 H         3.811287        -0.494665         2.086155
 H         2.682872         2.602016         0.003691
 H         3.982491        -0.201188        -1.850378
 H         1.788117        -2.322148        -0.475796
 H         3.450229        -2.315633         0.439534
