19
Iteration:  3198charge 0 multiplicity 1
 C         0.215109         0.818882        -0.229727
 C         1.427645         0.075217         0.095036
 C         1.818014        -1.316567         0.884156
 C         2.666258        -0.329351         1.830639
 C         2.731646         0.563174         0.744206
 O         2.929166         1.986015         0.897180
 C         2.688318        -0.130973        -0.557580
 O         3.223639         0.530170        -1.644241
 C         2.838526        -1.630441        -0.250448
 H        -0.755684         0.261776        -0.067368
 H         0.039881         1.729396         0.365233
 H         0.091392         1.187615        -1.298986
 H         1.138590        -1.972857         1.302066
 H         1.974177         0.010561         2.682940
 H         3.577812        -0.752177         2.365283
 H         3.353001         2.164089         0.059499
 H         2.724712         0.205210        -2.503533
 H         2.319568        -2.257800        -1.040361
 H         3.792755        -2.121003        -0.012347
