19
Iteration:   349
 C         0.127994         0.537802        -0.470391
 C         1.467311         0.047448        -0.040650
 C         1.951486        -1.391271         0.507008
 C         2.485549        -0.735912         1.746324
 C         2.440129         0.450935         0.954067
 O         2.725954         1.738513         1.501937
 C         2.890346         0.081040        -0.614306
 O         3.446761         1.172120        -1.329474
 C         2.980328        -1.422570        -0.665486
 H         0.002203         0.297091        -1.597652
 H        -0.739264         0.228713         0.196752
 H         0.152388         1.586145        -0.489538
 H         1.226415        -2.147572         0.660399
 H         1.735009        -0.827234         2.459759
 H         3.370403        -0.963078         2.262431
 H         3.476734         2.188762         0.936760
 H         2.867577         1.285336        -2.027831
 H         2.507227        -1.774538        -1.510805
 H         3.846381        -1.930890        -0.529449
