19
Iteration:  1805
 C         0.092051         0.725843        -0.286348
 C         1.450257         0.089843         0.069978
 C         1.843037        -1.366418         0.888803
 C         2.654416        -0.360602         1.931570
 C         2.680408         0.567342         0.779063
 O         2.904440         1.929593         0.874604
 C         2.740283        -0.095346        -0.572938
 O         3.321580         0.754879        -1.525072
 C         2.787149        -1.661370        -0.419086
 H        -0.547981        -0.110378        -0.565459
 H        -0.336983         1.309925         0.613470
 H         0.149600         1.269990        -1.165835
 H         1.263156        -2.239538         1.146834
 H         1.885688        -0.160591         2.682674
 H         3.599052        -0.650079         2.354638
 H         3.790228         2.116845         0.637490
 H         3.041830         0.546826        -2.402221
 H         2.158283        -2.160613        -1.198075
 H         3.734567        -2.343705        -0.291959
