19
Iteration:   828
 C        -0.088242         0.600960        -0.466930
 C         1.342521         0.072014         0.018675
 C         1.920234        -1.378111         0.612750
 C         2.673753        -0.666096         1.806614
 C         2.574104         0.575605         0.884163
 O         2.899873         1.873566         1.239694
 C         2.775660         0.006399        -0.582128
 O         3.472679         0.954719        -1.309965
 C         2.861749        -1.511523        -0.512699
 H        -0.703208         0.800886         0.427058
 H         0.081548         1.438058        -1.121976
 H        -0.646191        -0.134415        -1.096123
 H         1.391864        -2.269639         0.826583
 H         1.922612        -0.496833         2.601821
 H         3.695074        -1.059705         2.016791
 H         3.334350         2.466189         0.530828
 H         3.249627         1.007346        -2.334787
 H         2.419086        -2.055926        -1.419218
 H         3.904818        -2.016303        -0.314856
