19
Iteration:  4463charge 0 multiplicity 1
 C         0.084493         0.805597        -0.267825
 C         1.240959         0.071393         0.171893
 C         1.730974        -1.160331         1.119715
 C         2.808825        -0.117019         1.902063
 C         2.657149         0.693154         0.676846
 O         3.311638         1.851194         0.496658
 C         2.663991        -0.209156        -0.538381
 O         3.194778         0.237653        -1.773242
 C         2.657747        -1.629400        -0.062888
 H        -0.357946         0.339028        -1.120967
 H        -0.801541         0.860649         0.458905
 H         0.386625         1.835456        -0.449708
 H         1.063492        -1.681197         1.790782
 H         2.400895         0.231489         2.870450
 H         3.894111        -0.603108         1.994351
 H         3.197595         2.440106         1.301689
 H         3.441470         1.224912        -1.731089
 H         2.181338        -2.357651        -0.732712
 H         3.688258        -1.869213         0.095089
