19
Iteration:  3458
 C         0.021325         0.680873        -0.134642
 C         1.420986         0.187748         0.098852
 C         1.784920        -1.250858         0.769387
 C         2.497684        -0.408082         1.839189
 C         2.652075         0.618154         0.815921
 O         3.036791         1.933380         0.899160
 C         2.713804        -0.093604        -0.601085
 O         3.341475         0.546891        -1.654171
 C         2.885977        -1.557393        -0.313749
 H         0.024452         1.202396        -1.094381
 H        -0.596791        -0.190381        -0.188788
 H        -0.315451         1.344886         0.617308
 H         1.039449        -1.953351         0.954509
 H         1.898020        -0.206233         2.788188
 H         3.436037        -0.829983         2.333082
 H         4.048357         2.035865         0.734332
 H         3.492940         0.144621        -2.584754
 H         2.610843        -2.138033        -1.168904
 H         3.910146        -1.897011         0.093411
