19
Iteration:  4398
 C         0.154328         0.865684        -0.241229
 C         1.412536         0.124578         0.155436
 C         1.810782        -1.196907         1.155810
 C         2.716658        -0.183429         1.934186
 C         2.750147         0.680258         0.744486
 O         3.197215         1.977646         0.619907
 C         2.730688        -0.215257        -0.573583
 O         3.091241         0.206094        -1.839950
 C         2.630373        -1.661240        -0.143253
 H        -0.680044         0.361170         0.188175
 H         0.127154         1.933687         0.227391
 H         0.020177         0.786806        -1.306773
 H         1.108841        -1.929378         1.550637
 H         1.998628         0.243564         2.637145
 H         3.719016        -0.713703         2.341244
 H         2.423671         2.427556         0.270615
 H         3.927416         0.615182        -1.789395
 H         2.003954        -2.216102        -0.907906
 H         3.599106        -2.111392         0.005520
