19
Iteration:  2546charge 0 multiplicity 1
 C         0.071600         0.735263        -0.218112
 C         1.389891         0.135730         0.139837
 C         1.888829        -1.191899         1.045629
 C         2.720406        -0.309644         1.952366
 C         2.661599         0.669186         0.752215
 O         3.098520         1.944529         0.618676
 C         2.664176        -0.190965        -0.604065
 O         3.265686         0.470850        -1.608337
 C         2.697878        -1.674693        -0.211737
 H        -0.571241        -0.005438        -0.821485
 H        -0.530589         1.210779         0.663237
 H         0.112455         1.627861        -0.906169
 H         1.206596        -1.968801         1.514213
 H         2.179304         0.196172         2.845968
 H         3.782308        -0.296795         2.178910
 H         3.703201         2.018497        -0.140171
 H         2.871639         0.294602        -2.499072
 H         1.993954        -2.143814        -1.012144
 H         3.622162        -2.344227        -0.169664
