19
Iteration:  2207
 C         0.046536         0.660271        -0.326616
 C         1.351785         0.057801         0.132698
 C         1.788154        -1.146177         0.901263
 C         2.704485        -0.394199         1.892594
 C         2.704874         0.620181         0.771776
 O         3.061785         1.943079         0.816614
 C         2.806911        -0.123298        -0.489013
 O         3.276027         0.553368        -1.674148
 C         2.738195        -1.578160        -0.212163
 H        -0.105352         0.763928        -1.446353
 H        -0.781491         0.098761         0.124572
 H        -0.057507         1.645843         0.253717
 H         1.226119        -1.944779         1.381131
 H         2.204521         0.012160         2.760543
 H         3.650544        -0.823320         2.070127
 H         3.524714         2.092127        -0.110958
 H         2.575980         0.567873        -2.267501
 H         2.271442        -2.173275        -1.083432
 H         3.724921        -2.024997         0.086032
