19
Iteration:  2733
 C         0.044362         0.678483        -0.050955
 C         1.391009         0.072858         0.100018
 C         1.680082        -1.177473         0.983334
 C         2.589013        -0.238135         1.840918
 C         2.768664         0.666273         0.677442
 O         3.150197         1.984354         0.720073
 C         2.805870        -0.175400        -0.588377
 O         3.287714         0.437673        -1.792229
 C         2.741549        -1.630192        -0.115741
 H        -0.573100         0.230713        -0.822760
 H        -0.499728         0.738345         0.885450
 H         0.131669         1.710144        -0.222086
 H         1.014867        -1.947959         1.404418
 H         1.994622         0.091346         2.699509
 H         3.406226        -0.710373         2.376084
 H         3.753811         2.283441        -0.072256
 H         2.683432         0.076366        -2.548855
 H         2.531931        -2.233689        -0.920940
 H         3.635865        -2.034308         0.297673
