19
Iteration:  4337charge 0 multiplicity 1
 C         0.041948         0.724567        -0.244893
 C         1.415535         0.123354         0.189945
 C         1.821644        -1.114849         1.056021
 C         2.676876        -0.258038         1.976734
 C         2.772015         0.715929         0.777364
 O         3.264743         1.994630         0.620073
 C         2.646303        -0.206181        -0.523657
 O         3.099065         0.338638        -1.784136
 C         2.665508        -1.618870        -0.194949
 H        -0.608184         1.263593         0.523396
 H         0.232967         1.350324        -1.094707
 H        -0.661819        -0.081226        -0.646379
 H         1.033338        -1.873079         1.340036
 H         2.005325         0.179431         2.757230
 H         3.495067        -0.640046         2.518296
 H         3.941351         1.861672        -0.100921
 H         4.001074        -0.029885        -2.176710
 H         1.996566        -2.213522        -0.841049
 H         3.590418        -2.224097        -0.007256
