19
Iteration:  3420charge 0 multiplicity 1
 C         0.152114         0.714141        -0.275159
 C         1.413924         0.028752         0.128997
 C         1.769081        -1.318926         0.833286
 C         2.623975        -0.347426         1.834952
 C         2.624616         0.645364         0.787192
 O         2.986724         1.918131         0.981019
 C         2.758919        -0.101323        -0.599359
 O         3.326907         0.575066        -1.663045
 C         2.813833        -1.574426        -0.284546
 H         0.365430         1.576052        -0.955193
 H        -0.584367         0.059194        -0.828826
 H        -0.426162         1.254421         0.558986
 H         1.036774        -2.042145         1.364364
 H         2.078625         0.040336         2.649716
 H         3.641617        -0.738049         2.068476
 H         3.783609         2.134127         0.443931
 H         2.534236         0.709911        -2.252650
 H         2.304987        -2.069599        -1.174145
 H         3.698024        -2.059429         0.028865
