19
Iteration:  1897
 C         0.066963         0.645065        -0.280084
 C         1.481299         0.079786         0.058351
 C         1.789136        -1.215154         0.844633
 C         2.580075        -0.440420         1.902708
 C         2.684911         0.634685         0.794523
 O         3.052185         1.896009         0.985905
 C         2.803280        -0.116408        -0.581188
 O         3.219124         0.712051        -1.684392
 C         2.874972        -1.644110        -0.273596
 H         0.109813         1.119117        -1.283113
 H        -0.693485        -0.091755        -0.260589
 H        -0.245987         1.531643         0.331781
 H         0.990116        -1.928741         1.204270
 H         1.818854        -0.002305         2.696982
 H         3.559805        -0.797963         2.434898
 H         3.279886         2.497953         0.212425
 H         2.723871         0.386366        -2.557311
 H         2.303615        -2.231821        -1.064961
 H         3.778418        -2.217024        -0.026014
