19
Iteration:  1528charge 0 multiplicity 1
 C         0.101929         0.629062        -0.310686
 C         1.440618         0.073552         0.142262
 C         1.770697        -1.274810         0.723307
 C         2.626541        -0.640259         1.844122
 C         2.677865         0.595918         0.883939
 O         2.883461         1.981368         0.949886
 C         2.848119        -0.041205        -0.578722
 O         3.327785         0.872431        -1.533584
 C         2.826274        -1.644035        -0.351817
 H         0.107163         0.834644        -1.395810
 H        -0.746756        -0.047102        -0.161521
 H        -0.034262         1.605851         0.049006
 H         0.888055        -1.848493         0.925846
 H         2.071855        -0.596998         2.799463
 H         3.571160        -1.199996         2.184448
 H         3.698602         2.261381         0.411987
 H         2.874368         0.609053        -2.391935
 H         2.313963        -2.152673        -1.080412
 H         3.698215        -2.178828        -0.128968
