19
Iteration:    45
 C         0.124830         0.531158        -0.563620
 C         1.416574         0.005188        -0.039998
 C         1.979576        -1.492523         0.338208
 C         2.421438        -0.879518         1.715919
 C         2.453351         0.447538         1.021917
 O         2.770367         1.649136         1.583557
 C         2.801140         0.171315        -0.503499
 O         3.354560         1.329101        -1.210170
 C         3.108642        -1.256266        -0.747972
 H        -0.688817        -0.094370        -0.781357
 H        -0.323346         1.264902         0.124326
 H         0.382932         1.072004        -1.476902
 H         1.420810        -2.370511         0.364154
 H         1.723982        -1.021525         2.524778
 H         3.410362        -1.214934         2.120870
 H         3.504750         1.844826         1.090492
 H         3.503777         0.940914        -2.049701
 H         2.637224        -1.448109        -1.685601
 H         4.079903        -1.619992        -0.728657
