19
Iteration:  1653charge 0 multiplicity 1
 C         0.087714         0.687491        -0.385509
 C         1.344502         0.070526         0.133816
 C         1.841713        -1.343429         0.800391
 C         2.699605        -0.447429         1.906242
 C         2.635000         0.574911         0.777552
 O         2.979971         1.942798         1.028899
 C         2.738817        -0.149171        -0.572547
 O         3.297999         0.758830        -1.500634
 C         2.815522        -1.569366        -0.434180
 H        -0.103104         1.659045         0.091345
 H         0.157210         0.724626        -1.524513
 H        -0.771235        -0.057229        -0.337614
 H         1.202304        -2.137507         1.211128
 H         1.905301        -0.147838         2.729288
 H         3.751246        -0.671812         2.227428
 H         3.713824         2.169416         0.417606
 H         2.930944         0.598047        -2.368664
 H         2.330496        -2.064423        -1.264327
 H         3.805427        -1.863202        -0.237766
