19
Iteration:  1229
 C         0.034243         0.661701        -0.421983
 C         1.382366         0.103823         0.096545
 C         1.823981        -1.342806         0.773878
 C         2.654086        -0.673626         1.769011
 C         2.564450         0.573118         0.871254
 O         2.932573         1.874738         1.100562
 C         2.808786         0.024987        -0.546522
 O         3.352379         0.914550        -1.476791
 C         2.907691        -1.545355        -0.421207
 H        -0.385224         1.574021        -0.072144
 H         0.034157         0.806023        -1.462766
 H        -0.749593        -0.098032        -0.074941
 H         1.075656        -2.165629         1.054536
 H         2.228214        -0.478178         2.667322
 H         3.550341        -1.147738         1.981386
 H         3.334781         2.185524         0.322313
 H         3.136098         0.585534        -2.314943
 H         2.497607        -2.133266        -1.292292
 H         3.937891        -2.052123        -0.131896
