19
Iteration:  4557charge 0 multiplicity 1
 C         0.094034         0.787868        -0.316905
 C         1.298940         0.161276         0.234051
 C         1.851339        -1.092739         1.097347
 C         2.797241        -0.235008         1.913835
 C         2.715804         0.713829         0.696792
 O         3.315294         1.972543         0.605495
 C         2.597271        -0.201563        -0.538486
 O         3.070688         0.094942        -1.771171
 C         2.628375        -1.622449        -0.067610
 H         0.377953         1.652677        -1.043199
 H        -0.492885         0.319672        -1.026694
 H        -0.674115         1.145069         0.420368
 H         1.236044        -1.725098         1.713657
 H         2.494240         0.328218         2.856049
 H         3.851070        -0.525222         1.915885
 H         2.871015         2.547024        -0.014428
 H         3.977799         0.607789        -1.772871
 H         2.031456        -2.302078        -0.607583
 H         3.678678        -1.967418         0.065383
