19
Iteration:  1905charge 0 multiplicity 1
 C         0.057259         0.686564        -0.297940
 C         1.440486         0.087346         0.060416
 C         1.818802        -1.223780         0.761244
 C         2.585727        -0.411256         1.976316
 C         2.717461         0.564753         0.796211
 O         3.061072         1.934064         0.949576
 C         2.823368        -0.122545        -0.586616
 O         3.191000         0.704180        -1.630107
 C         2.847633        -1.621864        -0.234368
 H         0.159513         1.188312        -1.287114
 H        -0.601122        -0.291141        -0.360832
 H        -0.412364         1.314283         0.447928
 H         0.998153        -1.848582         0.984800
 H         1.943484        -0.290858         2.878198
 H         3.528860        -0.789508         2.175089
 H         3.295415         2.300363         0.051887
 H         2.801195         0.270531        -2.500302
 H         2.245419        -2.087978        -1.090887
 H         3.851352        -2.167028        -0.013595
