19
Iteration:  1516
 C         0.163170         0.632654        -0.355732
 C         1.419157         0.053841         0.108193
 C         1.736766        -1.345682         0.793708
 C         2.666418        -0.607456         1.838088
 C         2.612049         0.573334         0.816966
 O         2.898780         1.985406         1.020713
 C         2.828884        -0.052453        -0.528476
 O         3.357914         0.816792        -1.558329
 C         2.769212        -1.528286        -0.394553
 H         0.067704         0.663234        -1.447238
 H        -0.618821         0.061993         0.078617
 H        -0.005117         1.595915         0.119422
 H         1.113324        -2.151768         1.091496
 H         2.118794        -0.253367         2.687092
 H         3.719259        -1.102792         1.998426
 H         3.564081         2.118843         0.404095
 H         2.806358         0.812943        -2.272459
 H         2.474918        -1.973253        -1.311614
 H         3.629002        -1.996236         0.017098
