19
Iteration:  2215
 C         0.041079         0.721973        -0.324656
 C         1.356759         0.095304         0.154996
 C         1.751838        -1.272254         0.966197
 C         2.735929        -0.357049         1.900359
 C         2.657674         0.648036         0.832309
 O         3.049238         1.959018         0.783932
 C         2.770906        -0.143184        -0.533787
 O         3.285741         0.542107        -1.658341
 C         2.812214        -1.589387        -0.281807
 H        -0.200845         0.904260        -1.389339
 H        -0.699359        -0.028885        -0.137460
 H        -0.097001         1.661980         0.061327
 H         1.122836        -2.003379         1.405113
 H         2.368374        -0.019481         2.970446
 H         3.775412        -0.850576         2.074143
 H         3.580437         2.060954        -0.065843
 H         2.703108         0.565213        -2.409348
 H         2.243373        -2.106242        -1.030417
 H         3.655793        -2.127461         0.043869
