19
Iteration:   678
 C        -0.002645         0.614312        -0.398550
 C         1.362343         0.070421         0.009991
 C         1.886788        -1.452411         0.580911
 C         2.625935        -0.697157         1.806420
 C         2.522823         0.514872         0.897137
 O         2.750656         1.826201         1.273757
 C         2.863537         0.094870        -0.568323
 O         3.555697         0.999637        -1.385738
 C         2.898865        -1.459289        -0.553075
 H        -0.029724         0.829702        -1.508133
 H        -0.866402        -0.093482        -0.126079
 H        -0.070660         1.471188         0.222873
 H         1.192170        -2.144865         0.866532
 H         1.867851        -0.509422         2.607427
 H         3.707863        -1.013590         1.995402
 H         3.271761         2.237277         0.623499
 H         3.102229         0.929427        -2.277969
 H         2.490777        -1.871669        -1.492553
 H         3.868320        -1.953678        -0.300388
