19
Iteration:  2080
 C         0.129434         0.694231        -0.290253
 C         1.382122         0.096573         0.190462
 C         1.821404        -1.285176         0.866011
 C         2.689714        -0.349860         1.945649
 C         2.658155         0.640326         0.824321
 O         2.975876         1.982021         0.790265
 C         2.748709        -0.159948        -0.523015
 O         3.325720         0.592111        -1.636954
 C         2.758282        -1.643113        -0.369278
 H        -0.816643         0.250167         0.053903
 H         0.223564         1.748515         0.244664
 H         0.124162         0.830181        -1.351296
 H         1.244723        -2.199635         1.209273
 H         2.054925        -0.147300         2.876500
 H         3.662121        -0.869723         2.462692
 H         3.363554         2.264725        -0.148541
 H         2.632567         0.739982        -2.268120
 H         2.069521        -2.197113        -0.942400
 H         3.691656        -2.206661        -0.223480
