19
Iteration:  2958
 C         0.107596         0.820327        -0.179244
 C         1.418553         0.117937         0.158044
 C         1.779591        -1.161843         0.955586
 C         2.785239        -0.351073         1.903896
 C         2.584544         0.616259         0.744997
 O         2.940762         1.995620         0.697660
 C         2.779976        -0.238082        -0.619873
 O         3.319295         0.527732        -1.638607
 C         2.712324        -1.714172        -0.227230
 H        -0.115006         1.845771         0.189401
 H        -0.038048         0.877196        -1.269196
 H        -0.770231         0.301057         0.278477
 H         1.166899        -1.828712         1.427386
 H         2.410330        -0.280445         2.930509
 H         3.742439        -0.852514         1.783783
 H         3.883211         2.034794         0.344452
 H         2.944910         0.364711        -2.574455
 H         2.303570        -2.496584        -0.965434
 H         3.619736        -2.093867         0.164873
