19
Iteration:   377charge 0 multiplicity 1
 C         0.059778         0.578697        -0.448494
 C         1.349696        -0.010272         0.045275
 C         1.897726        -1.435118         0.378541
 C         2.533491        -0.876106         1.695732
 C         2.567837         0.449471         0.978784
 O         2.709407         1.875146         1.349908
 C         2.796491         0.146679        -0.486286
 O         3.488881         1.031520        -1.303066
 C         3.056306        -1.278956        -0.562781
 H         0.173329         0.836436        -1.468365
 H        -0.873599         0.052834        -0.358164
 H         0.018249         1.581677         0.153253
 H         1.180848        -2.364019         0.378595
 H         1.715651        -0.848099         2.535631
 H         3.520656        -1.348671         2.064271
 H         3.448662         2.337131         0.868037
 H         2.957053         1.034241        -2.117006
 H         2.770816        -1.589460        -1.669758
 H         4.102465        -1.768840        -0.226678
