19
Iteration:   442
 C         0.129520         0.586916        -0.341215
 C         1.450520        -0.024955         0.011312
 C         1.916178        -1.504445         0.425349
 C         2.387191        -0.712669         1.748369
 C         2.508009         0.524858         0.910655
 O         2.765707         1.802256         1.369430
 C         2.823421         0.091544        -0.572931
 O         3.482911         1.108387        -1.293370
 C         3.048591        -1.397341        -0.629759
 H         0.308269         1.599337        -0.589728
 H        -0.465842         0.074880        -1.065466
 H        -0.578919         0.683049         0.628041
 H         1.195075        -2.450225         0.302875
 H         1.560402        -0.687344         2.536659
 H         3.304032        -0.980656         2.292483
 H         2.855286         2.245846         0.541696
 H         3.240823         1.166752        -2.315971
 H         2.662165        -1.824599        -1.633494
 H         4.108801        -1.841983        -0.417266
