19
Iteration:  1431
 C         0.090221         0.685211        -0.325043
 C         1.466016         0.068076         0.057232
 C         1.856694        -1.372502         0.719744
 C         2.502998        -0.587181         1.878092
 C         2.645242         0.573493         0.844253
 O         2.958818         1.967148         1.076289
 C         2.770000        -0.059731        -0.620025
 O         3.281591         0.876951        -1.522879
 C         2.903206        -1.628626        -0.381175
 H        -0.590498        -0.218149        -0.351000
 H        -0.390377         1.351568         0.508438
 H         0.057782         1.204546        -1.245977
 H         1.058335        -2.069571         0.840503
 H         1.785910        -0.273754         2.671634
 H         3.443822        -0.742398         2.333494
 H         3.794337         2.062933         0.460992
 H         3.078733         0.489464        -2.516730
 H         2.468923        -2.049761        -1.363696
 H         3.959634        -2.081894        -0.165043
