19
Iteration:  4745charge 0 multiplicity 1
 C         0.016190         0.839479        -0.328825
 C         1.373551         0.101300         0.219870
 C         1.777683        -1.000131         1.257201
 C         2.868908        -0.126426         1.916029
 C         2.745100         0.693653         0.656021
 O         3.356995         1.865915         0.294747
 C         2.615372        -0.272250        -0.526752
 O         3.047715         0.159282        -1.757356
 C         2.622873        -1.676083         0.039494
 H        -0.374189         0.252195        -1.251530
 H        -0.685507         0.747257         0.445848
 H         0.368962         1.827929        -0.681974
 H         0.950813        -1.485603         1.853054
 H         2.359614         0.462543         2.837507
 H         3.820318        -0.722075         2.151829
 H         3.291173         2.471087         1.100869
 H         3.270847         1.178784        -1.729371
 H         2.108114        -2.401296        -0.521623
 H         3.506858        -2.154806         0.465070
