19
Iteration:  1323charge 0 multiplicity 1
 C         0.069127         0.679172        -0.329752
 C         1.329528         0.013595         0.081322
 C         1.884200        -1.409374         0.688510
 C         2.535228        -0.579464         1.898750
 C         2.545610         0.599171         0.887015
 O         2.992652         1.967332         1.140963
 C         2.749712        -0.018125        -0.640152
 O         3.352100         0.799158        -1.567952
 C         2.948845        -1.516146        -0.438925
 H        -0.763832         0.747791         0.430282
 H         0.331722         1.767692        -0.573281
 H        -0.404003         0.117790        -1.110610
 H         1.250984        -2.243759         0.709615
 H         1.796211        -0.255341         2.747227
 H         3.433296        -0.974362         2.412745
 H         3.899491         2.094500         0.671584
 H         2.819577         0.541979        -2.469373
 H         2.724058        -2.090404        -1.377504
 H         3.973898        -1.874491        -0.265693
