19
Iteration:   595charge 0 multiplicity 1
 C         0.165447         0.637907        -0.362170
 C         1.409626        -0.067073         0.024952
 C         1.906427        -1.429908         0.467729
 C         2.433033        -0.658199         1.816818
 C         2.541116         0.514352         0.827807
 O         2.860156         1.805797         1.324509
 C         2.790494         0.063346        -0.591988
 O         3.414355         1.031784        -1.333989
 C         3.009946        -1.416497        -0.567769
 H        -0.661769        -0.055184        -0.348434
 H        -0.130118         1.415682         0.317522
 H         0.078988         0.949176        -1.482475
 H         1.165160        -2.416114         0.685015
 H         1.634939        -0.587365         2.607531
 H         3.271189        -1.029192         2.349427
 H         2.960138         2.485125         0.678065
 H         2.914195         1.144815        -2.277073
 H         2.702320        -1.906205        -1.464444
 H         3.931532        -1.809451        -0.185337
