19
Iteration:  1070charge 0 multiplicity 1
 C         0.161361         0.625875        -0.368125
 C         1.479024         0.043969         0.030206
 C         1.863046        -1.313344         0.655023
 C         2.527906        -0.685689         1.811149
 C         2.534464         0.550687         0.889386
 O         2.875724         1.900361         1.181186
 C         2.848338         0.024266        -0.576932
 O         3.321652         0.939914        -1.525953
 C         2.886485        -1.535780        -0.370024
 H         0.048596         0.838253        -1.491167
 H        -0.626403        -0.181496        -0.290611
 H         0.041102         1.499743         0.216080
 H         1.081597        -2.076877         0.759321
 H         1.991603        -0.494894         2.818929
 H         3.476457        -1.062868         2.138345
 H         3.625700         2.131606         0.537037
 H         2.671648         0.801359        -2.338724
 H         2.439439        -1.971230        -1.297299
 H         3.810556        -2.122214        -0.275421
