19
Iteration:  1242charge 0 multiplicity 1
 C         0.061323         0.648108        -0.436002
 C         1.363305         0.058549         0.125296
 C         1.833358        -1.383092         0.682103
 C         2.645139        -0.569741         1.884980
 C         2.635073         0.564246         0.896349
 O         2.921069         1.896188         1.105979
 C         2.795496        -0.036071        -0.470742
 O         3.358507         0.846500        -1.471566
 C         2.874428        -1.486396        -0.497694
 H        -0.052818         1.536535         0.186508
 H         0.078818         0.818656        -1.507112
 H        -0.757866        -0.080501        -0.373106
 H         1.134484        -2.236651         0.993726
 H         2.053279        -0.459434         2.724233
 H         3.612261        -0.916927         2.009876
 H         3.106621         2.292032         0.164546
 H         2.997425         0.594550        -2.444609
 H         2.275273        -1.648819        -1.445718
 H         3.910273        -2.009267        -0.555121
