19
Iteration:  2632charge 0 multiplicity 1
 C         0.144997         0.710070        -0.330485
 C         1.392518         0.086200         0.190884
 C         1.798125        -1.186539         1.078870
 C         2.705691        -0.286410         1.895102
 C         2.715798         0.672809         0.680909
 O         3.185268         1.988030         0.786065
 C         2.743119        -0.165223        -0.560799
 O         3.126177         0.454592        -1.749073
 C         2.654837        -1.662172        -0.138876
 H         0.095263         0.732137        -1.432547
 H        -0.643638         0.091218         0.193573
 H         0.132507         1.753550        -0.144657
 H         1.350125        -1.986348         1.718478
 H         2.143320         0.285354         2.659850
 H         3.744137        -0.729775         1.963116
 H         3.490270         2.299827        -0.151411
 H         2.472767         0.145836        -2.496608
 H         2.082047        -2.251728        -0.780187
 H         3.617082        -2.133121         0.183878
