19
Iteration:  4710charge 0 multiplicity 1
 C         0.059430         0.657590        -0.231415
 C         1.396619         0.200052         0.248937
 C         1.800252        -0.993303         1.172885
 C         2.814387        -0.129409         1.948923
 C         2.818371         0.744111         0.684439
 O         3.425084         1.969631         0.326040
 C         2.569149        -0.274805        -0.522136
 O         3.101053         0.148778        -1.714932
 C         2.494257        -1.715407        -0.114631
 H        -0.647604        -0.242987        -0.204233
 H        -0.437477         1.496510         0.239841
 H         0.019879         1.056142        -1.291033
 H         0.964211        -1.501671         1.688340
 H         2.264565         0.346192         2.863969
 H         3.752932        -0.551308         2.445248
 H         2.643676         2.612250         0.371756
 H         3.829827         0.908774        -1.560296
 H         1.752533        -2.262176        -0.647767
 H         3.347892        -2.322701         0.142284
