19
Iteration:  2158charge 0 multiplicity 1
 C         0.004780         0.616313        -0.279267
 C         1.375603         0.063090         0.099594
 C         1.870192        -1.249652         0.893315
 C         2.577830        -0.335720         1.902029
 C         2.651638         0.661444         0.755353
 O         3.205751         1.908122         0.908305
 C         2.731818        -0.096289        -0.542782
 O         3.221543         0.543785        -1.694610
 C         2.835125        -1.508920        -0.248241
 H        -0.384523        -0.043738        -1.047130
 H        -0.612342         0.843007         0.643300
 H         0.057882         1.595934        -0.610885
 H         1.068147        -1.911108         1.285327
 H         1.765579         0.163838         2.581773
 H         3.592444        -0.634170         2.449530
 H         3.536204         2.167395         0.101015
 H         3.029061         0.217706        -2.678070
 H         2.211475        -1.966884        -0.961441
 H         3.669147        -2.152346        -0.047313
