19
Iteration:  4152charge 0 multiplicity 1
 C         0.132680         0.760149        -0.209563
 C         1.427121         0.125521         0.191451
 C         1.736402        -1.185312         0.946847
 C         2.700422        -0.300850         1.860519
 C         2.773891         0.703732         0.763213
 O         3.057613         2.053657         0.760583
 C         2.706819        -0.198374        -0.596277
 O         3.230698         0.331991        -1.715266
 C         2.662222        -1.647552        -0.204332
 H        -0.329408         0.455197        -1.170617
 H        -0.490213         0.731403         0.603008
 H         0.422342         1.840249        -0.312960
 H         1.017750        -1.737166         1.570582
 H         2.017868         0.084016         2.684036
 H         3.678711        -0.779225         2.221547
 H         3.443038         2.316945        -0.126125
 H         3.516110        -0.325534        -2.410558
 H         2.148861        -2.341345        -0.810413
 H         3.611072        -2.188741         0.092466
