19
Iteration:  3221charge 0 multiplicity 1
 C         0.168973         0.850046        -0.231868
 C         1.319497        -0.021754         0.144883
 C         1.850650        -1.298970         0.956650
 C         2.705339        -0.383118         1.911161
 C         2.572900         0.563329         0.742156
 O         2.961476         1.966634         0.798675
 C         2.757621        -0.107255        -0.545699
 O         3.336289         0.626722        -1.657180
 C         2.786242        -1.619037        -0.306718
 H        -0.791153         0.509610         0.207471
 H         0.189212         1.864353         0.178900
 H        -0.055068         0.946595        -1.351426
 H         1.173254        -2.043860         1.270113
 H         2.127855        -0.102909         2.843995
 H         3.631399        -0.971216         2.271188
 H         3.285429         2.072546        -0.173188
 H         3.111737         0.212135        -2.434190
 H         2.197969        -2.387200        -0.914082
 H         3.757263        -2.075410        -0.115800
