19
Iteration:  2064charge 0 multiplicity 1
 C         0.119434         0.787054        -0.243526
 C         1.472937         0.095224         0.104551
 C         1.852886        -1.279644         0.934108
 C         2.640571        -0.476526         1.909834
 C         2.642881         0.626999         0.809338
 O         2.989160         1.970565         0.823992
 C         2.718550        -0.124060        -0.611330
 O         3.261030         0.571299        -1.641078
 C         2.810768        -1.582656        -0.244979
 H        -0.600210         0.112391         0.229941
 H         0.013520         1.822061        -0.178407
 H        -0.279352         0.639335        -1.320117
 H         1.049437        -1.884750         1.254221
 H         1.994090        -0.190045         2.714705
 H         3.577020        -0.801578         2.237887
 H         3.461121         2.086444        -0.076678
 H         2.733481         0.506726        -2.368001
 H         2.472135        -2.167239        -1.184890
 H         3.808310        -2.033841        -0.033377
