19
Iteration:   375
 C         0.063673         0.577165        -0.457485
 C         1.349880        -0.006120         0.038545
 C         1.900137        -1.450126         0.375923
 C         2.528251        -0.871571         1.719663
 C         2.568278         0.453264         0.970383
 O         2.710129         1.866240         1.357158
 C         2.791771         0.164633        -0.476123
 O         3.488576         1.033118        -1.311928
 C         3.052332        -1.291480        -0.574261
 H         0.152794         0.849282        -1.509614
 H        -0.872402         0.038147        -0.283459
 H         0.008852         1.582666         0.109051
 H         1.241030        -2.344255         0.382130
 H         1.783128        -0.826858         2.562758
 H         3.461595        -1.328526         2.092158
 H         3.488095         2.367394         0.866031
 H         2.970904         1.040365        -2.050314
 H         2.748192        -1.577151        -1.641925
 H         4.108759        -1.778168        -0.292213
