19
Iteration:  1595
 C        -0.016015         0.664464        -0.243944
 C         1.401841         0.168247         0.062171
 C         1.836814        -1.275300         0.713972
 C         2.600775        -0.545676         1.790573
 C         2.627416         0.569667         0.816743
 O         2.973178         1.914749         1.093363
 C         2.783529        -0.061865        -0.598586
 O         3.355906         0.677675        -1.600583
 C         2.938541        -1.579901        -0.307957
 H         0.009697         1.686958        -0.683249
 H        -0.652566         0.124017        -1.055072
 H        -0.482904         0.835509         0.665529
 H         0.961495        -1.981519         0.869834
 H         1.908909        -0.301809         2.722970
 H         3.608661        -0.910342         2.270859
 H         3.082312         2.460818         0.291034
 H         2.875368         0.606881        -2.491479
 H         2.685503        -2.199961        -1.092337
 H         3.995103        -1.761480        -0.076787
