19
Iteration:    67
 C         0.139022         0.556165        -0.546172
 C         1.402889        -0.036800         0.009641
 C         1.973368        -1.460843         0.313043
 C         2.453272        -0.904756         1.703483
 C         2.533853         0.480415         0.982500
 O         2.747146         1.686301         1.618123
 C         2.903888         0.172562        -0.475291
 O         3.369477         1.246722        -1.206586
 C         3.019282        -1.241541        -0.777982
 H        -0.296098        -0.179468        -1.176421
 H        -0.676624         0.594563         0.158307
 H         0.283971         1.431042        -1.155713
 H         1.401776        -2.310170         0.264462
 H         1.528150        -0.820600         2.262076
 H         3.168863        -1.420494         2.410446
 H         3.154070         2.276730         0.823721
 H         3.183569         1.095085        -2.225448
 H         2.677287        -1.450468        -1.752159
 H         3.928234        -1.601817        -0.572629
