19
Iteration:   976charge 0 multiplicity 1
 C         0.070894         0.621378        -0.390311
 C         1.430225         0.048477         0.018498
 C         1.835649        -1.439504         0.699117
 C         2.615759        -0.549635         1.855122
 C         2.604844         0.510288         0.848592
 O         2.843927         1.876107         1.175543
 C         2.780917        -0.026069        -0.594403
 O         3.430641         1.020924        -1.429068
 C         2.839693        -1.539653        -0.520052
 H        -0.372879        -0.143196        -0.959073
 H        -0.600214         0.715124         0.475211
 H         0.236971         1.553918        -0.990329
 H         1.076015        -2.216926         0.783578
 H         1.937342        -0.412699         2.669276
 H         3.599278        -1.063616         2.276728
 H         3.603015         2.243431         0.843132
 H         3.248330         0.767462        -2.286869
 H         2.268764        -1.920415        -1.397941
 H         3.799786        -2.053307        -0.249054
