19
Iteration:  2820charge 0 multiplicity 1
 C         0.180551         0.733133        -0.354605
 C         1.392106         0.126530         0.268702
 C         1.763348        -1.224133         1.023643
 C         2.827886        -0.328265         1.910623
 C         2.681526         0.697118         0.715885
 O         3.090907         2.025717         0.690479
 C         2.733944        -0.213498        -0.503842
 O         3.198208         0.532350        -1.656760
 C         2.624373        -1.740573        -0.215177
 H        -0.638560         0.089119        -0.027042
 H         0.049111         1.774199         0.034085
 H         0.210538         0.695575        -1.415047
 H         1.150537        -2.123984         1.250140
 H         2.173513         0.037372         2.758095
 H         3.772141        -0.908331         2.284061
 H         3.337300         2.112593        -0.199752
 H         2.560642         0.716562        -2.461707
 H         2.002874        -2.331031        -0.870251
 H         3.640540        -2.276489         0.059848
