19
Iteration:  2906charge 0 multiplicity 1
 C         0.029679         0.628864        -0.156160
 C         1.395705         0.134082         0.096107
 C         1.847858        -1.169582         0.921628
 C         2.648077        -0.221536         1.920431
 C         2.644904         0.719591         0.815806
 O         3.242386         1.886401         0.805145
 C         2.697148        -0.140230        -0.606942
 O         3.265116         0.502413        -1.717140
 C         2.724771        -1.714884        -0.233361
 H        -0.549836         1.312462         0.543082
 H        -0.023287         1.322332        -1.053492
 H        -0.610967        -0.238994        -0.487491
 H         1.039589        -1.786350         1.212519
 H         1.958315         0.018106         2.682273
 H         3.613039        -0.560371         2.319546
 H         3.377095         2.269404        -0.147509
 H         2.712114         0.233062        -2.403058
 H         2.102169        -2.186046        -0.977599
 H         3.742861        -2.127737        -0.092245
