19
Iteration:   721
 C         0.106498         0.746675        -0.420658
 C         1.427855        -0.012017         0.063675
 C         1.945227        -1.425344         0.606529
 C         2.498705        -0.711322         1.850799
 C         2.584488         0.544620         0.917614
 O         2.796786         1.827818         1.264097
 C         2.859274        -0.007573        -0.565226
 O         3.319508         1.025084        -1.440988
 C         3.022309        -1.522590        -0.542840
 H         0.426901         1.658472        -1.013383
 H        -0.564307         0.142512        -1.148007
 H        -0.580404         0.957412         0.404980
 H         1.298929        -2.235300         0.602521
 H         1.604526        -0.510383         2.470252
 H         3.471460        -1.122747         2.282665
 H         3.100420         2.338407         0.490017
 H         2.831494         0.926707        -2.373448
 H         2.605461        -1.968807        -1.442927
 H         3.940107        -1.863081        -0.244975
