19
Iteration:   675
 C        -0.024866         0.626488        -0.410345
 C         1.375542         0.057502         0.013787
 C         1.899850        -1.431767         0.571567
 C         2.641014        -0.680504         1.806081
 C         2.516571         0.510237         0.912718
 O         2.753620         1.819209         1.281114
 C         2.813589         0.077985        -0.569389
 O         3.575540         0.998360        -1.379970
 C         2.905887        -1.471600        -0.570474
 H        -0.087592         0.757923        -1.512178
 H        -0.820263        -0.042200        -0.061461
 H        -0.192870         1.559041         0.199729
 H         1.269142        -2.270503         0.885421
 H         1.871436        -0.537130         2.476931
 H         3.689966        -0.931629         2.122290
 H         3.384773         2.258534         0.632176
 H         3.118397         0.956904        -2.337867
 H         2.522360        -1.887395        -1.483691
 H         3.774988        -1.883851        -0.274028
