19
Iteration:  2094
 C         0.129980         0.705339        -0.289582
 C         1.376867        -0.042159         0.200555
 C         1.842640        -1.302283         0.950189
 C         2.722561        -0.368131         1.864887
 C         2.649450         0.622875         0.749719
 O         2.995657         1.995939         0.802006
 C         2.787791        -0.093986        -0.552747
 O         3.336777         0.605165        -1.567630
 C         2.684066        -1.639341        -0.317813
 H        -0.879886         0.148094        -0.136524
 H        -0.103602         1.719583         0.213832
 H         0.238895         0.828605        -1.392444
 H         1.019096        -1.861282         1.412930
 H         1.963885         0.078483         2.645632
 H         3.744448        -0.590755         2.200536
 H         3.392994         2.070507        -0.017373
 H         2.623420         0.851189        -2.304029
 H         2.115245        -1.840865        -1.273167
 H         3.580166        -2.299237        -0.261948
