19
Iteration:  2093
 C         0.125435         0.699157        -0.290970
 C         1.383550        -0.044186         0.212049
 C         1.835288        -1.296585         0.941257
 C         2.722163        -0.363711         1.870225
 C         2.650107         0.630308         0.754909
 O         2.993135         1.994603         0.803198
 C         2.785690        -0.102065        -0.555664
 O         3.336008         0.604533        -1.573875
 C         2.691523        -1.639166        -0.320753
 H        -0.891538         0.167041        -0.148558
 H        -0.059277         1.760118         0.201727
 H         0.215900         0.861077        -1.368726
 H         1.008081        -1.900793         1.401503
 H         1.931662         0.069354         2.638995
 H         3.795729        -0.614316         2.230795
 H         3.394576         2.073622        -0.054544
 H         2.646674         0.844524        -2.270973
 H         2.130722        -1.829883        -1.248017
 H         3.569619        -2.312306        -0.284184
