19
Iteration:  2854charge 0 multiplicity 1
 C         0.067586         0.664031        -0.354230
 C         1.386215         0.151068         0.192659
 C         1.832804        -1.164666         1.009605
 C         2.696001        -0.281458         1.948197
 C         2.623285         0.688082         0.797443
 O         3.258299         1.891717         0.768747
 C         2.710305        -0.182124        -0.578575
 O         3.122254         0.482518        -1.710114
 C         2.751077        -1.576530        -0.240033
 H        -0.682459         0.237086         0.298993
 H        -0.080458         1.750860        -0.289346
 H        -0.173961         0.382512        -1.368948
 H         1.176299        -2.074806         1.312239
 H         2.125138         0.147851         2.866353
 H         3.711550        -0.612456         2.385544
 H         3.806528         1.950632        -0.029693
 H         2.542654         0.278050        -2.398145
 H         2.210517        -2.208853        -0.932733
 H         3.797473        -2.103528         0.008795
