19
Iteration:   858
 C         0.126900         0.590490        -0.332863
 C         1.415514         0.052147         0.064309
 C         1.787391        -1.410882         0.585121
 C         2.504697        -0.694402         1.831697
 C         2.497143         0.578574         0.878995
 O         2.921610         1.847535         1.141948
 C         2.821245         0.053651        -0.546630
 O         3.380223         0.964181        -1.419557
 C         2.964621        -1.436144        -0.470775
 H        -0.657933         0.242391         0.268122
 H         0.041407         1.644309        -0.361230
 H        -0.073857         0.270691        -1.406405
 H         1.240708        -2.382691         0.594010
 H         1.886712        -0.527590         2.616696
 H         3.437491        -1.094522         2.046325
 H         3.492168         2.162091         0.469983
 H         3.068056         0.837837        -2.365600
 H         2.742633        -1.931957        -1.360028
 H         3.906809        -1.685276        -0.066580
