19
Iteration:  3521
 C         0.116245         0.697718        -0.254494
 C         1.347902         0.012816         0.113668
 C         1.770733        -1.245288         0.871767
 C         2.666765        -0.421057         1.880095
 C         2.635955         0.632976         0.747618
 O         3.013593         1.939319         0.863649
 C         2.683826        -0.091820        -0.559454
 O         3.436434         0.560712        -1.528703
 C         2.761340        -1.553312        -0.311517
 H         0.413602         1.531341        -0.974244
 H        -0.725063         0.217375        -0.860369
 H        -0.391325         1.110676         0.637979
 H         1.160191        -2.082257         1.191928
 H         2.130215        -0.235698         2.818884
 H         3.724471        -0.682262         2.019928
 H         3.148364         2.180770        -0.146821
 H         2.792431         0.899286        -2.292871
 H         2.363411        -1.967432        -1.266331
 H         3.721180        -2.047182        -0.236571
