19
Iteration:  1420
 C         0.113284         0.647289        -0.296731
 C         1.372073         0.020537         0.080025
 C         1.914298        -1.368744         0.759484
 C         2.539680        -0.569290         1.865254
 C         2.545190         0.611798         0.831973
 O         2.976748         1.932487         1.048877
 C         2.728112        -0.051174        -0.642954
 O         3.360406         0.845045        -1.502544
 C         2.878466        -1.517727        -0.424142
 H        -0.772185        -0.044553        -0.410423
 H        -0.162566         1.545449         0.378576
 H         0.237315         1.071857        -1.271917
 H         1.328179        -2.232481         0.980982
 H         1.720188        -0.320034         2.569676
 H         3.364964        -1.073963         2.336778
 H         3.814699         2.186334         0.578857
 H         3.147840         0.717089        -2.473021
 H         2.240160        -2.202859        -1.132386
 H         3.919620        -2.036731        -0.270160
