19
Iteration:  4000charge 0 multiplicity 1
 C         0.116172         0.814600        -0.324517
 C         1.381785         0.185727         0.210810
 C         1.808644        -1.254609         0.933404
 C         2.711876        -0.380137         1.869997
 C         2.765052         0.643939         0.762254
 O         3.054422         2.016594         0.824305
 C         2.688880        -0.164990        -0.514423
 O         3.164513         0.397522        -1.737792
 C         2.759936        -1.643822        -0.177044
 H        -0.065408         1.820280         0.147748
 H         0.436179         1.159440        -1.329346
 H        -0.727938         0.030114        -0.441625
 H         1.076204        -1.910895         1.391540
 H         2.159992        -0.090519         2.766679
 H         3.615876        -0.865297         2.196628
 H         3.776709         2.188924         0.168855
 H         2.634509         0.005077        -2.459611
 H         2.316769        -2.173123        -1.017190
 H         3.808803        -1.885555         0.160614
