19
Iteration:  1317
 C         0.099093         0.681021        -0.310257
 C         1.335963         0.039148         0.098248
 C         1.850640        -1.398224         0.651000
 C         2.489031        -0.602230         1.866145
 C         2.548330         0.621109         0.867341
 O         2.991027         1.957662         1.142283
 C         2.746650        -0.057629        -0.582292
 O         3.329252         0.805652        -1.590558
 C         2.966329        -1.499376        -0.413620
 H        -0.583084         0.842266         0.503646
 H         0.325475         1.602116        -0.788476
 H        -0.330731        -0.009138        -1.132484
 H         1.262273        -2.403906         0.688876
 H         2.059624        -0.264568         2.794380
 H         3.580790        -0.922073         2.059908
 H         3.840962         2.048608         0.718978
 H         2.899330         0.738207        -2.427883
 H         2.707189        -2.165310        -1.236101
 H         4.000426        -1.763019        -0.023030
