19
Iteration:  2236
 C         0.118519         0.759743        -0.308787
 C         1.295349         0.084315         0.199847
 C         1.967840        -1.259413         0.930502
 C         2.731533        -0.412675         1.860775
 C         2.617849         0.671020         0.788501
 O         3.023849         2.032482         0.753686
 C         2.607982        -0.206437        -0.557734
 O         3.314159         0.544125        -1.569040
 C         2.707008        -1.656716        -0.266804
 H         0.247186         1.184265        -1.318691
 H        -0.732085         0.093387        -0.484380
 H        -0.040997         1.607828         0.268438
 H         1.332822        -1.971728         1.390460
 H         2.098977        -0.131589         2.811667
 H         3.812741        -0.708465         2.194873
 H         3.695364         2.069835        -0.039548
 H         3.004053         0.386611        -2.445107
 H         2.211116        -2.318895        -0.910073
 H         3.731963        -1.880153        -0.080473
