19
Iteration:  1121charge 0 multiplicity 1
 C         0.055305         0.739948        -0.378023
 C         1.354297        -0.022850         0.041832
 C         1.859554        -1.377169         0.727762
 C         2.673854        -0.562221         1.840245
 C         2.483406         0.561777         0.845590
 O         2.832762         1.876105         1.196898
 C         2.796418        -0.009381        -0.601504
 O         3.436600         0.912959        -1.482935
 C         2.888575        -1.570568        -0.509883
 H         0.251201         1.247687        -1.302379
 H        -0.785636         0.055221        -0.505114
 H        -0.204469         1.532793         0.410282
 H         1.264689        -2.314607         1.050154
 H         2.102577        -0.521261         2.812010
 H         3.774286        -0.920790         1.948011
 H         3.592981         2.117790         0.743479
 H         3.284614         0.499868        -2.293333
 H         2.480318        -2.092573        -1.388131
 H         3.911762        -2.020336        -0.383547
