19
Iteration:  4343
 C         0.051924         0.736774        -0.251312
 C         1.351009         0.092619         0.187297
 C         1.783973        -1.111198         1.051482
 C         2.709169        -0.230555         1.987963
 C         2.742302         0.684260         0.760271
 O         3.269830         1.966591         0.623513
 C         2.688158        -0.167580        -0.556682
 O         3.091100         0.332904        -1.811787
 C         2.692903        -1.622271        -0.125509
 H        -0.453640         1.130768         0.598983
 H         0.163219         1.543276        -1.061390
 H        -0.541057        -0.007600        -0.744268
 H         0.985134        -1.802191         1.261542
 H         2.098096         0.099601         2.826801
 H         3.581970        -0.759760         2.522309
 H         3.912266         2.060146        -0.069925
 H         3.943365         0.058788        -2.014315
 H         2.006740        -2.188960        -0.821140
 H         3.618675        -2.197082        -0.044263
