19
Iteration:    86charge 0 multiplicity 1
 C         0.154577         0.538850        -0.526890
 C         1.446111         0.074608        -0.034219
 C         1.832607        -1.414780         0.362833
 C         2.492157        -0.927302         1.651674
 C         2.496636         0.448416         0.994254
 O         2.714745         1.657302         1.592398
 C         2.859565         0.213427        -0.530238
 O         3.424805         1.301128        -1.230272
 C         3.105600        -1.379255        -0.675643
 H        -0.157610         0.041878        -1.566226
 H        -0.615502         0.106330         0.149093
 H         0.216866         1.611911        -0.651660
 H         1.014862        -2.308707         0.326301
 H         1.899061        -0.978099         2.686141
 H         3.545732        -1.291641         1.721151
 H         2.828746         2.401892         0.862820
 H         2.899871         1.496871        -2.060467
 H         2.715590        -1.803344        -1.638176
 H         4.098302        -1.932106        -0.395870
