19
Iteration:  4728
 C         0.131759         0.687144        -0.260396
 C         1.350738         0.255413         0.269267
 C         1.702093        -1.046688         1.185194
 C         2.812239        -0.187944         1.927526
 C         2.721482         0.702520         0.689761
 O         3.375516         1.898414         0.242346
 C         2.676108        -0.224228        -0.500191
 O         3.078251         0.174760        -1.789659
 C         2.545570        -1.660782         0.085684
 H        -0.435028        -0.092793        -0.694620
 H        -0.546122         1.198680         0.510962
 H         0.256279         1.488958        -1.009719
 H         1.053862        -1.662032         1.782505
 H         2.532367         0.250108         2.817602
 H         3.764139        -0.668823         2.002137
 H         3.101756         2.773074         0.652244
 H         3.587846         1.062994        -1.519857
 H         1.959933        -2.303720        -0.671149
 H         3.512814        -2.225589         0.192192
