19
Iteration:  4223
 C         0.219400         0.754050        -0.233623
 C         1.472909         0.133811         0.156679
 C         1.795929        -1.119940         1.029663
 C         2.605982        -0.275268         1.971762
 C         2.791663         0.660328         0.709624
 O         3.050995         2.010087         0.620746
 C         2.683516        -0.255895        -0.593618
 O         3.197695         0.371063        -1.771837
 C         2.679790        -1.699835        -0.133019
 H         0.311626         1.525514        -0.994371
 H        -0.606337        -0.051512        -0.384509
 H        -0.094841         1.269951         0.681983
 H         0.986260        -1.734604         1.408715
 H         1.954024         0.160895         2.707027
 H         3.520840        -0.722904         2.363291
 H         4.029127         2.181071         0.646531
 H         2.323402         0.799069        -2.106723
 H         2.276909        -2.450989        -0.921675
 H         3.657639        -2.133554         0.204089
