19
Iteration:  3204charge 0 multiplicity 1
 C         0.191676         0.811504        -0.218349
 C         1.413536         0.050438         0.080016
 C         1.835914        -1.270223         0.890102
 C         2.666153        -0.364459         1.867667
 C         2.708157         0.578046         0.748317
 O         2.926291         1.931991         0.864793
 C         2.695980        -0.137273        -0.607405
 O         3.228914         0.529776        -1.603500
 C         2.823967        -1.589419        -0.248632
 H        -0.775020         0.327330        -0.111702
 H         0.310120         1.815480         0.294768
 H         0.128871         1.103530        -1.259393
 H         1.155898        -2.108917         1.375391
 H         2.109476        -0.012583         2.696362
 H         3.610663        -0.586311         2.325705
 H         3.361950         2.336719        -0.017130
 H         2.854536         0.185186        -2.406271
 H         2.273272        -1.980304        -1.092980
 H         3.785737        -2.103182        -0.030485
