19
Iteration:  3357charge 0 multiplicity 1
 C         0.161174         0.683424        -0.444490
 C         1.374697         0.073607         0.126414
 C         1.777066        -1.267609         0.905340
 C         2.729742        -0.353153         1.845358
 C         2.724469         0.592762         0.799045
 O         3.091259         1.936122         0.943988
 C         2.652359        -0.106303        -0.539425
 O         3.147814         0.628357        -1.503875
 C         2.760980        -1.578871        -0.319903
 H         0.263909         1.723325        -0.168205
 H         0.232072         0.673506        -1.529750
 H        -0.666132         0.178944        -0.099938
 H         1.163849        -2.151821         1.234129
 H         2.099393         0.002707         2.697422
 H         3.755155        -0.746284         2.236494
 H         3.522656         1.991611         0.015628
 H         2.910397         0.332781        -2.412514
 H         2.235587        -2.236650        -1.058196
 H         3.813096        -2.007374        -0.318482
