19
Iteration:  4096charge 0 multiplicity 1
 C        -0.015614         0.707072        -0.314256
 C         1.346871         0.163185         0.197259
 C         1.828494        -1.286007         0.990403
 C         2.552794        -0.297539         1.900236
 C         2.704869         0.710623         0.717114
 O         3.329218         1.880126         0.615122
 C         2.635378        -0.130921        -0.545571
 O         3.194154         0.523742        -1.572438
 C         2.751119        -1.567328        -0.181481
 H        -0.847483         0.056023        -0.024042
 H        -0.270532         1.520930         0.260464
 H         0.022772         0.952299        -1.373271
 H         1.151193        -2.092514         1.406497
 H         2.063094         0.094418         2.847760
 H         3.581421        -0.730029         2.262294
 H         4.014744         1.844516        -0.138158
 H         3.476334        -0.182268        -2.333990
 H         2.317699        -2.274446        -0.828813
 H         3.795275        -1.920082         0.162846
