19
Iteration:  3035
 C         0.115266         0.736847        -0.226658
 C         1.408974         0.113061         0.120829
 C         1.758627        -1.277435         0.909444
 C         2.632048        -0.374438         1.829357
 C         2.725992         0.636674         0.721673
 O         3.065991         2.080504         0.910642
 C         2.684667        -0.149365        -0.590803
 O         3.233223         0.478880        -1.755435
 C         2.834946        -1.672280        -0.160219
 H         0.227342         1.305756        -1.187690
 H        -0.534163        -0.104657        -0.396621
 H        -0.262728         1.487617         0.504990
 H         1.016036        -1.871583         1.285962
 H         2.127942         0.097275         2.711435
 H         3.552496        -0.905040         2.244470
 H         3.775242         2.404883         0.368964
 H         2.534235         0.422886        -2.463623
 H         2.382486        -2.533712        -0.834100
 H         3.794387        -2.094904         0.129238
