19
Iteration:  4283
 C        -0.009197         0.731414        -0.338522
 C         1.329783         0.179117         0.194779
 C         1.756403        -1.129446         1.079954
 C         2.807948        -0.283617         1.864049
 C         2.708235         0.718884         0.649668
 O         3.253864         1.916460         0.692092
 C         2.638064        -0.228199        -0.555414
 O         3.272051         0.459618        -1.704226
 C         2.680442        -1.705683        -0.043493
 H        -0.248720         1.817827        -0.116857
 H        -0.249381         0.581404        -1.348880
 H        -0.738939         0.162506         0.314538
 H         0.997011        -1.795839         1.553175
 H         2.350119         0.084547         2.828078
 H         3.778817        -0.800751         1.982537
 H         3.398124         2.242781        -0.230476
 H         2.863025         0.016120        -2.530814
 H         2.186298        -2.358921        -0.705327
 H         3.643616        -2.041725         0.325285
