19
Iteration:  1377charge 0 multiplicity 1
 C         0.030122         0.641877        -0.318857
 C         1.421096         0.069222         0.052887
 C         1.842655        -1.275587         0.713253
 C         2.621935        -0.628957         1.767164
 C         2.610912         0.584520         0.899470
 O         2.893295         1.995044         1.062972
 C         2.766007        -0.030757        -0.582895
 O         3.475273         0.819635        -1.464032
 C         2.815633        -1.643869        -0.396948
 H        -0.806446        -0.030184         0.044136
 H        -0.129755         1.668965         0.201984
 H        -0.148829         0.896420        -1.345729
 H         1.269840        -2.078712         1.083641
 H         2.088307        -0.623149         2.732900
 H         3.582146        -1.004155         1.779683
 H         3.055229         2.301667         0.080900
 H         2.836575         0.760823        -2.337234
 H         2.513591        -2.268501        -1.341575
 H         3.873288        -1.932543         0.015943
