19
Iteration:  3007charge 0 multiplicity 1
 C         0.181063         0.784531        -0.188735
 C         1.477687         0.115338         0.111027
 C         1.812859        -1.247271         0.903224
 C         2.645780        -0.325378         1.970250
 C         2.644171         0.604663         0.834946
 O         2.955730         1.976212         0.848743
 C         2.761567        -0.094340        -0.549916
 O         3.209184         0.399422        -1.842412
 C         2.834945        -1.606060        -0.265401
 H         0.342829         1.785678        -0.636097
 H        -0.474942         0.276085        -0.952894
 H        -0.372492         1.063693         0.720178
 H         0.861926        -1.860238         1.201729
 H         2.015744         0.136595         2.729455
 H         3.581080        -0.719075         2.344433
 H         3.762162         2.242208         0.364693
 H         2.659348        -0.031035        -2.472054
 H         2.263977        -2.140961        -0.968375
 H         3.751389        -2.230407        -0.128365
