19
Iteration:  2285charge 0 multiplicity 1
 C         0.125919         0.704710        -0.152858
 C         1.392777         0.150816         0.061366
 C         1.770681        -1.222721         0.910499
 C         2.602451        -0.400197         1.924294
 C         2.701835         0.686164         0.725983
 O         3.066924         2.045805         0.784603
 C         2.687952        -0.180953        -0.596529
 O         3.274985         0.484966        -1.691840
 C         2.860476        -1.680083        -0.171294
 H         0.159769         1.765687        -0.356524
 H        -0.240910         0.236390        -1.023261
 H        -0.426267         0.583481         0.769080
 H         1.077440        -2.054224         1.286826
 H         2.000493        -0.018573         2.697792
 H         3.502495        -0.754507         2.366134
 H         3.320702         2.297533        -0.059398
 H         2.620778         0.414715        -2.507778
 H         2.349802        -2.184167        -1.051454
 H         3.790819        -2.155920         0.066965
