19
Iteration:   697
 C         0.186026         0.629461        -0.341138
 C         1.460282        -0.027997         0.017431
 C         1.742851        -1.337576         0.564863
 C         2.550892        -0.744092         1.753744
 C         2.565564         0.563839         0.906320
 O         2.746390         1.885356         1.245154
 C         2.874884         0.025299        -0.504523
 O         3.415438         0.990696        -1.387654
 C         2.978829        -1.459263        -0.535262
 H         0.262079         1.040761        -1.368028
 H        -0.503073        -0.232088        -0.453336
 H        -0.328226         1.269109         0.428199
 H         1.219421        -2.239501         0.555141
 H         1.962087        -0.635771         2.619234
 H         3.550753        -1.213885         1.800893
 H         2.943446         2.392497         0.471893
 H         3.026536         0.863316        -2.237864
 H         2.464116        -1.757886        -1.430128
 H         3.827874        -1.974385        -0.326747
