19
Iteration:  3310
 C         0.015537         0.578984        -0.263104
 C         1.395383         0.081716         0.086291
 C         1.730645        -1.217390         0.836618
 C         2.593325        -0.346155         1.936775
 C         2.665437         0.653331         0.721660
 O         3.213493         1.919239         0.960859
 C         2.747535        -0.074576        -0.577696
 O         3.303268         0.557754        -1.626841
 C         2.776037        -1.527574        -0.338720
 H        -0.264494         1.356434         0.433437
 H        -0.150259         0.905790        -1.300092
 H        -0.498611        -0.399973        -0.068068
 H         0.867997        -1.887382         1.141507
 H         2.014159         0.037593         2.777475
 H         3.591678        -0.864282         2.261760
 H         3.541731         2.289394         0.162022
 H         2.652863         0.551382        -2.269336
 H         2.558486        -2.141634        -1.267789
 H         3.666113        -1.942875         0.058434
