19
Iteration:  2626charge 0 multiplicity 1
 C         0.161878         0.727397        -0.335175
 C         1.375963         0.042397         0.209738
 C         1.813897        -1.207377         1.125879
 C         2.693093        -0.294479         1.860897
 C         2.708458         0.709854         0.680605
 O         3.217439         1.990937         0.806561
 C         2.705715        -0.141469        -0.554279
 O         3.132985         0.419461        -1.774013
 C         2.672800        -1.629059        -0.168784
 H         0.030926         0.576527        -1.428080
 H        -0.626952         0.116679         0.109291
 H         0.066409         1.832536        -0.072937
 H         1.286247        -2.038288         1.574273
 H         2.139668         0.362351         2.572730
 H         3.638179        -0.665694         2.248184
 H         3.460003         2.340602        -0.110922
 H         2.414075         0.138667        -2.429270
 H         2.118263        -2.356563        -0.898791
 H         3.615783        -2.047473         0.180521
