19
Iteration:  4350charge 0 multiplicity 1
 C         0.090457         0.740783        -0.266828
 C         1.351576         0.129518         0.156880
 C         1.735867        -1.144005         1.038600
 C         2.719172        -0.233968         1.993969
 C         2.700399         0.656658         0.692436
 O         3.260702         1.940097         0.659412
 C         2.729239        -0.148254        -0.581785
 O         3.066033         0.338453        -1.828645
 C         2.697945        -1.626856        -0.071718
 H        -0.419167         1.033014         0.740957
 H         0.245250         1.674554        -0.736633
 H        -0.560790        -0.012122        -0.837807
 H         1.008021        -1.766913         1.607005
 H         2.155525         0.278411         2.873670
 H         3.723270        -0.748373         2.124931
 H         3.819195         2.085927        -0.129828
 H         3.994313         0.082870        -1.795377
 H         2.141221        -2.174246        -0.761761
 H         3.688561        -2.086278         0.162686
