19
Iteration:  3206charge 0 multiplicity 1
 C         0.181309         0.818668        -0.213730
 C         1.398478         0.028544         0.080707
 C         1.840680        -1.253814         0.901216
 C         2.670945        -0.392340         1.892506
 C         2.690344         0.605771         0.742139
 O         2.929850         1.910449         0.844786
 C         2.713365        -0.148022        -0.617234
 O         3.239295         0.538629        -1.590020
 C         2.808390        -1.575985        -0.257285
 H        -0.829718         0.301938        -0.060035
 H         0.395060         1.833962         0.287620
 H         0.187005         1.075438        -1.329575
 H         1.229013        -2.082715         1.338914
 H         2.071707         0.028558         2.753375
 H         3.657506        -0.563473         2.271340
 H         3.330485         2.365450         0.032873
 H         2.864167         0.147022        -2.498431
 H         2.284977        -1.902223        -1.074634
 H         3.783804        -2.075751        -0.041438
