19
Iteration:  4280charge 0 multiplicity 1
 C        -0.003259         0.752292        -0.325365
 C         1.329054         0.163781         0.201567
 C         1.766305        -1.142400         1.060520
 C         2.794547        -0.289275         1.844277
 C         2.699679         0.699099         0.687186
 O         3.266377         1.946127         0.694325
 C         2.610219        -0.244008        -0.588521
 O         3.271279         0.436723        -1.692271
 C         2.699806        -1.679147        -0.033786
 H        -0.197816         1.814525        -0.195467
 H        -0.279709         0.513321        -1.423702
 H        -0.659653         0.148572         0.293636
 H         0.964477        -1.786516         1.486926
 H         2.464743         0.137849         2.747722
 H         3.773361        -0.639716         2.040650
 H         3.340566         2.172781        -0.232383
 H         2.801517         0.125764        -2.401155
 H         2.112443        -2.363821        -0.762177
 H         3.656321        -2.058626         0.353301
