19
Iteration:  1910charge 0 multiplicity 1
 C         0.082022         0.675898        -0.315701
 C         1.397905         0.102839         0.075038
 C         1.824776        -1.246873         0.768960
 C         2.597464        -0.402537         1.964996
 C         2.705082         0.563881         0.800322
 O         3.075048         1.963911         0.925262
 C         2.822828        -0.111443        -0.570729
 O         3.188828         0.687095        -1.598072
 C         2.825331        -1.597712        -0.264716
 H         0.067003         1.211674        -1.266639
 H        -0.495458        -0.150434        -0.560235
 H        -0.427940         1.148698         0.584523
 H         0.976077        -2.011285         0.922191
 H         2.019742        -0.306659         2.938626
 H         3.645108        -0.969772         2.184231
 H         3.294521         2.067058        -0.034178
 H         2.885289         0.277676        -2.349138
 H         2.352235        -2.132265        -1.094888
 H         3.726938        -2.034783         0.041813
