19
Iteration:  3999charge 0 multiplicity 1
 C         0.115203         0.820704        -0.323859
 C         1.381292         0.183353         0.210733
 C         1.805711        -1.250315         0.927351
 C         2.708785        -0.380849         1.866427
 C         2.769306         0.636595         0.760484
 O         3.052273         2.021357         0.823749
 C         2.685699        -0.176097        -0.517225
 O         3.165043         0.404870        -1.731419
 C         2.766444        -1.641788        -0.175727
 H        -0.082173         1.819339         0.127608
 H         0.436214         1.128668        -1.308460
 H        -0.748924         0.060561        -0.437522
 H         1.089575        -1.925927         1.400439
 H         2.168742        -0.075180         2.773518
 H         3.630667        -0.868878         2.202905
 H         3.805624         2.162220         0.171723
 H         2.599353        -0.041565        -2.467225
 H         2.337797        -2.166525        -0.981474
 H         3.819388        -1.898009         0.156970
