19
Iteration:  3515charge 0 multiplicity 1
 C         0.087122         0.701532        -0.247903
 C         1.347707         0.032230         0.117671
 C         1.809818        -1.271435         0.849020
 C         2.695935        -0.370402         1.863657
 C         2.619196         0.629188         0.792365
 O         3.008616         1.936326         0.873767
 C         2.691966        -0.101309        -0.580416
 O         3.424319         0.555454        -1.515959
 C         2.761572        -1.582047        -0.367171
 H         0.292724         1.497965        -0.927268
 H        -0.706808         0.144220        -0.689222
 H        -0.351654         1.228695         0.609091
 H         1.028936        -1.987514         1.165263
 H         1.946816         0.020710         2.641184
 H         3.703265        -0.821701         2.142668
 H         3.177937         2.152459        -0.037906
 H         3.121535         0.862684        -2.390132
 H         2.273129        -2.071713        -1.215054
 H         3.758879        -2.038393        -0.049555
