19
Iteration:  4747
 C         0.018976         0.840567        -0.331878
 C         1.355723         0.110933         0.203547
 C         1.791900        -1.005544         1.247452
 C         2.870842        -0.108027         1.926246
 C         2.747129         0.670298         0.650646
 O         3.358496         1.877767         0.310586
 C         2.614129        -0.280867        -0.544072
 O         3.039072         0.146167        -1.751338
 C         2.625843        -1.676543         0.054254
 H        -0.347805         0.329039        -1.269653
 H        -0.776772         0.750253         0.441341
 H         0.383015         1.853620        -0.601201
 H         0.970393        -1.497658         1.798970
 H         2.386173         0.502081         2.818875
 H         3.805559        -0.693765         2.163451
 H         3.346460         2.505123         1.093560
 H         3.230480         1.191304        -1.652251
 H         2.090220        -2.466406        -0.523027
 H         3.584662        -2.173576         0.372522
