19
Iteration:  1778
 C         0.050716         0.689832        -0.261533
 C         1.361892         0.010428         0.143456
 C         1.802012        -1.298558         0.848611
 C         2.616866        -0.458527         1.850252
 C         2.602116         0.619742         0.797654
 O         2.987949         1.962830         0.935403
 C         2.731814        -0.045586        -0.565021
 O         3.370094         0.677039        -1.604749
 C         2.866426        -1.543112        -0.376476
 H        -0.875767         0.051422        -0.077403
 H        -0.063355         1.567365         0.357537
 H         0.168644         1.052693        -1.406606
 H         1.228074        -2.239662         1.102647
 H         1.971359        -0.465513         2.735937
 H         3.623896        -0.831018         2.145003
 H         3.729187         2.105312         0.390601
 H         3.167835         0.261893        -2.418014
 H         2.414574        -2.192224        -1.156321
 H         3.848350        -1.916438        -0.109124
