19
Iteration:  1766charge 0 multiplicity 1
 C         0.100838         0.669806        -0.225820
 C         1.344796         0.068255         0.118785
 C         1.727687        -1.342032         0.729230
 C         2.649815        -0.516610         1.823935
 C         2.655250         0.630912         0.802563
 O         2.996060         1.996323         0.982556
 C         2.676287        -0.043579        -0.580770
 O         3.354916         0.632256        -1.590345
 C         2.892766        -1.515882        -0.287917
 H        -0.718166        -0.068608        -0.002064
 H        -0.113766         1.614013         0.194968
 H        -0.027046         0.777460        -1.427544
 H         1.023206        -2.092437         1.110226
 H         2.214563         0.027982         2.710344
 H         3.613707        -1.038868         2.076447
 H         3.506914         2.229348         0.181071
 H         3.089701         0.258008        -2.442702
 H         2.728186        -2.059814        -1.243567
 H         3.821843        -1.795793         0.108447
