19
Iteration:  4373
 C         0.103112         0.854767        -0.232815
 C         1.360527         0.110928         0.145755
 C         1.777611        -1.092858         1.034188
 C         2.775324        -0.213690         1.851461
 C         2.684815         0.701388         0.656384
 O         3.241169         1.988486         0.731875
 C         2.670693        -0.299232        -0.627903
 O         3.052345         0.298640        -1.782471
 C         2.735935        -1.750735        -0.009547
 H        -0.707380         0.648692         0.553601
 H         0.243851         1.940194        -0.241376
 H        -0.203992         0.402901        -1.223357
 H         0.926037        -1.693179         1.340771
 H         2.084393         0.146418         2.702430
 H         3.739029        -0.824943         2.070286
 H         3.154800         2.469249        -0.132090
 H         4.090449         0.407155        -1.735659
 H         2.241136        -2.501744        -0.549184
 H         3.761054        -2.009652         0.295530
