19
Iteration:  3248
 C         0.088162         0.751011        -0.180646
 C         1.362365         0.112441         0.108377
 C         1.829958        -1.227531         0.855598
 C         2.697352        -0.451375         1.860819
 C         2.638390         0.612393         0.716927
 O         2.987775         2.011438         0.764924
 C         2.736181        -0.159865        -0.574196
 O         3.351066         0.578371        -1.507002
 C         2.768528        -1.631578        -0.292388
 H        -0.669031         0.522282         0.562464
 H         0.094937         1.829124        -0.327130
 H        -0.397138         0.377889        -1.044799
 H         1.057055        -2.017744         1.138158
 H         2.150422        -0.275062         2.755820
 H         3.559527        -0.986255         2.180101
 H         3.602187         2.131742        -0.034092
 H         2.966649         0.576786        -2.339972
 H         2.341189        -2.362284        -0.984201
 H         3.750139        -1.980688         0.126683
