19
Iteration:   299charge 0 multiplicity 1
 C         0.108763         0.580155        -0.585817
 C         1.349111         0.035010         0.071232
 C         1.952026        -1.399247         0.388985
 C         2.486860        -0.835470         1.756055
 C         2.408128         0.438963         1.041485
 O         2.876684         1.710329         1.425289
 C         2.784951         0.158293        -0.482303
 O         3.388654         1.155001        -1.302403
 C         3.089107        -1.277689        -0.613915
 H        -0.574178        -0.201341        -0.792181
 H        -0.267037         1.266045         0.156728
 H         0.179262         1.106238        -1.628325
 H         1.289314        -2.290218         0.217207
 H         1.793545        -0.964372         2.671720
 H         3.481349        -1.318049         2.122985
 H         3.089356         2.189941         0.670411
 H         3.046955         0.921125        -2.292731
 H         2.826115        -1.756295        -1.633113
 H         4.066752        -1.870600        -0.241457
