19
Iteration:  4180charge 0 multiplicity 1
 C         0.088574         0.896401        -0.247467
 C         1.374767         0.115068         0.163198
 C         1.811330        -1.216103         1.039972
 C         2.759490        -0.312385         1.886681
 C         2.656620         0.687629         0.781193
 O         2.996492         1.986240         0.754726
 C         2.729365        -0.148235        -0.613396
 O         3.277244         0.237025        -1.808560
 C         2.750706        -1.573475        -0.167851
 H        -0.028483         0.958271        -1.338259
 H        -0.844944         0.476716         0.318187
 H         0.161181         1.923148         0.120743
 H         1.184857        -1.837198         1.682314
 H         2.151582         0.061556         2.681204
 H         3.687034        -0.692474         2.238981
 H         3.927155         2.053195         0.482816
 H         3.007250        -0.208458        -2.575761
 H         1.974755        -2.229975        -0.714092
 H         3.674172        -2.154368        -0.059383
