19
Iteration:  3210charge 0 multiplicity 1
 C         0.161571         0.838483        -0.217184
 C         1.369396        -0.014210         0.089790
 C         1.851265        -1.231644         0.923374
 C         2.675578        -0.422503         1.935978
 C         2.648755         0.637708         0.724955
 O         2.938701         1.890406         0.815368
 C         2.743814        -0.161265        -0.600299
 O         3.260661         0.557464        -1.601021
 C         2.790290        -1.555687        -0.266278
 H        -0.793881         0.350042         0.058993
 H         0.419799         1.783106         0.252436
 H         0.262759         1.003379        -1.337873
 H         1.309325        -2.051624         1.263470
 H         2.042566         0.040838         2.762571
 H         3.776379        -0.629950         2.203189
 H         3.285520         2.369662         0.086811
 H         2.981731         0.200544        -2.450814
 H         2.204289        -1.994337        -1.175485
 H         3.754714        -2.020309        -0.080684
