19
Iteration:  2588charge 0 multiplicity 1
 C         0.095919         0.724579        -0.276880
 C         1.411045         0.174909         0.082729
 C         1.794072        -1.212331         1.044811
 C         2.693100        -0.274189         1.913407
 C         2.652882         0.706207         0.747110
 O         3.235530         1.969200         0.818577
 C         2.750262        -0.183975        -0.561476
 O         3.097674         0.368167        -1.835584
 C         2.813388        -1.609520        -0.094479
 H        -0.303286         0.473587        -1.301336
 H        -0.588036         0.284813         0.529776
 H        -0.121003         1.798118        -0.294488
 H         0.894511        -1.775878         1.428728
 H         1.990770         0.086144         2.745115
 H         3.626509        -0.901709         2.231402
 H         3.584519         2.100018        -0.158851
 H         2.251233         0.229299        -2.434606
 H         2.312080        -2.259482        -0.801421
 H         3.828867        -2.027373         0.154219
