19
Iteration:  2581
 C         0.071870         0.702919        -0.251244
 C         1.438998         0.133223         0.105583
 C         1.747407        -1.221108         1.009039
 C         2.692519        -0.307885         1.890565
 C         2.690832         0.687470         0.712061
 O         3.224272         1.988207         0.793297
 C         2.721465        -0.152234        -0.576672
 O         3.120194         0.401069        -1.822647
 C         2.794834        -1.625594        -0.020616
 H        -0.257035         0.295407        -1.223668
 H        -0.636941         0.354644         0.519608
 H         0.209200         1.812954        -0.274843
 H         0.895084        -1.737268         1.470937
 H         2.064732         0.123271         2.719352
 H         3.618215        -0.650103         2.212781
 H         3.678772         2.207269        -0.098590
 H         2.341068         0.318662        -2.483136
 H         2.251587        -2.176708        -0.903697
 H         3.761184        -2.067025         0.194948
