19
Iteration:   225
 C         0.107120         0.577242        -0.424254
 C         1.423321         0.030795        -0.010210
 C         1.899988        -1.433786         0.337631
 C         2.487839        -0.913282         1.730115
 C         2.556354         0.470503         1.017425
 O         2.630736         1.785593         1.446367
 C         2.869470         0.190841        -0.509854
 O         3.509625         1.096656        -1.284091
 C         3.061663        -1.320619        -0.672879
 H        -0.448259         1.020193         0.423010
 H         0.342455         1.392684        -1.109454
 H        -0.678704        -0.177874        -0.741532
 H         1.269154        -2.534412         0.292575
 H         1.535522        -0.906364         2.359458
 H         3.474586        -1.263902         2.096465
 H         3.021275         2.292167         0.782069
 H         3.023637         1.526912        -2.031048
 H         2.657348        -1.695842        -1.626211
 H         4.015553        -1.668083        -0.535411
