19
Iteration:  3672charge 0 multiplicity 1
 C         0.126253         0.696673        -0.189785
 C         1.387446         0.098797         0.148165
 C         1.757428        -1.269657         0.861497
 C         2.615884        -0.394809         1.881735
 C         2.655113         0.628402         0.695636
 O         3.071272         1.983340         0.770458
 C         2.725478        -0.177968        -0.581944
 O         3.380267         0.613004        -1.503976
 C         2.743633        -1.615938        -0.331714
 H        -0.266490         1.040328         0.774023
 H         0.365660         1.530057        -0.812012
 H        -0.618108         0.079150        -0.650996
 H         1.149644        -2.118601         1.239876
 H         1.920328         0.040524         2.612661
 H         3.441665        -0.719576         2.593920
 H         3.304032         2.080055        -0.195976
 H         2.955297         0.485087        -2.422407
 H         2.074663        -2.144446        -1.074961
 H         3.647579        -2.083937        -0.037091
