19
Iteration:  4356charge 0 multiplicity 1
 C         0.106937         0.741470        -0.244486
 C         1.409789         0.155075         0.125039
 C         1.707633        -1.154294         1.056331
 C         2.711474        -0.239140         1.927740
 C         2.677984         0.667072         0.659297
 O         3.245943         1.926740         0.700941
 C         2.701607        -0.183086        -0.561443
 O         3.060855         0.338574        -1.834068
 C         2.701498        -1.619611        -0.045113
 H        -0.472363         0.876504         0.636262
 H         0.323553         1.799953        -0.604176
 H        -0.534818         0.178030        -0.891179
 H         1.122727        -1.747916         1.774475
 H         2.377967         0.311137         2.760785
 H         3.713884        -0.630431         2.008936
 H         3.656730         2.005191        -0.213881
 H         4.120012         0.225827        -1.841015
 H         2.263844        -2.355687        -0.837084
 H         3.632462        -2.009524         0.408153
