19
Iteration:  2845charge 0 multiplicity 1
 C         0.099191         0.666836        -0.365324
 C         1.376259         0.125481         0.155907
 C         1.865467        -1.223179         1.037966
 C         2.725041        -0.270101         1.927820
 C         2.678717         0.689090         0.779208
 O         3.212490         1.911051         0.737969
 C         2.657030        -0.093955        -0.449711
 O         3.140458         0.469717        -1.702485
 C         2.739701        -1.620905        -0.239250
 H        -0.658650         0.163659         0.189849
 H         0.133684         1.716584        -0.189521
 H        -0.072869         0.517806        -1.435974
 H         0.994175        -1.909222         1.468299
 H         1.998059         0.079859         2.759757
 H         3.621800        -0.752261         2.360768
 H         3.707322         1.910000        -0.100651
 H         2.530687         0.385872        -2.377133
 H         2.032068        -2.102628        -0.909592
 H         3.701836        -2.066496        -0.397907
