19
Iteration:  1424charge 0 multiplicity 1
 C         0.104611         0.660167        -0.294916
 C         1.427114         0.028398         0.079696
 C         1.914352        -1.356896         0.762820
 C         2.512345        -0.602976         1.865083
 C         2.556078         0.593713         0.834137
 O         2.981355         1.955550         1.055908
 C         2.729601        -0.049478        -0.651591
 O         3.331301         0.855223        -1.508072
 C         2.889755        -1.567238        -0.393455
 H        -0.676413        -0.091426        -0.378197
 H        -0.264051         1.490144         0.320433
 H         0.136852         1.203963        -1.313941
 H         1.217391        -2.236161         0.858876
 H         1.672911        -0.245048         2.525038
 H         3.481508        -0.931958         2.302831
 H         3.804785         2.212705         0.579986
 H         3.156255         0.677114        -2.494536
 H         2.274032        -2.139373        -1.201176
 H         3.914355        -2.059128        -0.280164
