19
Iteration:  1891
 C         0.122668         0.637709        -0.282344
 C         1.429853         0.080690         0.081217
 C         1.789238        -1.257536         0.912179
 C         2.584827        -0.412039         1.854396
 C         2.653631         0.643354         0.767469
 O         3.060748         1.920496         1.042252
 C         2.805373        -0.099801        -0.600081
 O         3.246253         0.697414        -1.704504
 C         2.844475        -1.640223        -0.317554
 H         0.019685         0.952033        -1.334372
 H        -0.802291        -0.036950        -0.219181
 H        -0.035295         1.497009         0.385373
 H         1.089380        -2.016811         1.248222
 H         1.933677         0.075415         2.490376
 H         3.329711        -0.864327         2.483444
 H         3.242279         2.344562         0.120819
 H         2.683076         0.456983        -2.463506
 H         2.419802        -2.284776        -1.053775
 H         3.780918        -2.117796         0.052383
