19
Iteration:  4921charge 0 multiplicity 1
 C         0.136412         0.827834        -0.236375
 C         1.375044         0.143904         0.260743
 C         1.826997        -0.984561         1.320491
 C         2.779379         0.008640         1.965269
 C         2.790156         0.744322         0.589941
 O         3.375634         2.018416         0.373686
 C         2.566339        -0.381066        -0.593517
 O         2.929358         0.062894        -1.844449
 C         2.604603        -1.700154         0.043868
 H        -0.627392         0.065673         0.160949
 H         0.018436         1.750732         0.289045
 H         0.167034         0.856644        -1.338945
 H         1.150725        -1.561603         1.967327
 H         2.302413         0.723966         2.704000
 H         3.739847        -0.253633         2.376924
 H         4.160149         1.915729        -0.166231
 H         3.090590        -0.718691        -2.368044
 H         1.895426        -2.374751        -0.416703
 H         3.596555        -2.302954         0.192044
