19
Iteration:  1016
 C         0.091613         0.596505        -0.377975
 C         1.392086         0.056399        -0.007533
 C         1.809962        -1.415586         0.630635
 C         2.493090        -0.666726         1.886372
 C         2.494627         0.591352         0.980095
 O         3.007180         1.861949         1.172821
 C         2.786436         0.086438        -0.576500
 O         3.412515         0.864307        -1.542911
 C         2.941349        -1.455375        -0.460737
 H        -0.158803         0.478017        -1.509915
 H        -0.681732         0.001249         0.249616
 H        -0.050974         1.638373        -0.111415
 H         1.196324        -2.274088         0.965029
 H         1.826278        -0.496988         2.808835
 H         3.489854        -0.858396         2.132448
 H         3.481329         1.926713         0.241672
 H         2.642374         1.186679        -2.187977
 H         2.812128        -1.807109        -1.560052
 H         3.947629        -1.612516         0.106422
