19
Iteration:  3443
 C        -0.034456         0.745247        -0.239735
 C         1.393846         0.067937         0.048492
 C         1.861230        -1.256754         0.851608
 C         2.571101        -0.495403         1.950884
 C         2.618617         0.656966         0.813005
 O         3.061871         2.011852         0.961124
 C         2.738195        -0.122988        -0.699028
 O         3.374936         0.602639        -1.696162
 C         2.867541        -1.599327        -0.298565
 H        -0.116500         1.506776        -1.058674
 H        -0.880093         0.003593        -0.408152
 H        -0.330437         1.391576         0.639765
 H         1.182861        -2.139640         1.209981
 H         1.795144        -0.096927         2.555209
 H         3.459384        -1.021287         2.434129
 H         3.979270         2.004218         0.711761
 H         2.953649         0.127468        -2.402999
 H         2.261436        -2.337614        -0.909609
 H         3.845718        -1.897195        -0.041882
