19
Iteration:  1923
 C         0.096199         0.631958        -0.345239
 C         1.413278         0.084750         0.136180
 C         1.756317        -1.292153         0.868195
 C         2.643074        -0.496707         1.857582
 C         2.616026         0.671807         0.843797
 O         3.103668         1.952526         0.848985
 C         2.717485        -0.077617        -0.508509
 O         3.256377         0.683026        -1.565128
 C         2.832329        -1.571655        -0.334014
 H         0.255775         1.544625        -0.925084
 H        -0.524164        -0.135518        -0.827118
 H        -0.482288         1.013857         0.512103
 H         1.120662        -2.095769         1.246981
 H         2.064717        -0.082900         2.634846
 H         3.612040        -0.941474         2.262997
 H         3.472682         2.253747         0.013155
 H         2.901923         0.308199        -2.463149
 H         2.471291        -2.166767        -1.126475
 H         3.777601        -1.951581         0.013046
