19
Iteration:  3428
 C         0.090783         0.735883        -0.260403
 C         1.331858         0.047694         0.063311
 C         1.820154        -1.335307         0.865359
 C         2.606966        -0.377344         1.902408
 C         2.644773         0.634956         0.770418
 O         3.019870         1.959585         0.987661
 C         2.743157        -0.094690        -0.573418
 O         3.347877         0.596282        -1.720778
 C         2.808267        -1.602295        -0.281506
 H         0.369179         1.404256        -1.076525
 H        -0.669138         0.070189        -0.684318
 H        -0.343296         1.182330         0.695610
 H         1.047830        -2.051474         1.214869
 H         1.978192        -0.087852         2.766313
 H         3.599230        -0.675949         2.164218
 H         3.875224         2.085645         0.589798
 H         2.821659         0.692775        -2.515923
 H         2.464918        -2.137623        -1.170996
 H         3.746754        -2.168292         0.006899
