19
Iteration:  4558charge 0 multiplicity 1
 C         0.104305         0.785653        -0.310342
 C         1.292422         0.155494         0.224380
 C         1.851274        -1.088056         1.109773
 C         2.798539        -0.248010         1.907086
 C         2.716456         0.717913         0.698915
 O         3.312413         1.970679         0.604486
 C         2.600463        -0.198015        -0.535389
 O         3.071514         0.092716        -1.772061
 C         2.627820        -1.608632        -0.068366
 H         0.396002         1.687666        -1.011545
 H        -0.457916         0.320310        -1.066644
 H        -0.683807         1.153824         0.413061
 H         1.234049        -1.716615         1.715081
 H         2.504644         0.312080         2.842972
 H         3.811220        -0.516116         1.920031
 H         2.828837         2.519234        -0.049125
 H         3.927777         0.586538        -1.787373
 H         2.021570        -2.287531        -0.613690
 H         3.702894        -1.974994         0.090142
