19
Iteration:   444
 C         0.126743         0.588185        -0.342879
 C         1.442736        -0.008634        -0.000140
 C         1.914937        -1.496748         0.418504
 C         2.400779        -0.728127         1.761581
 C         2.499399         0.513874         0.940254
 O         2.766022         1.806575         1.362074
 C         2.837314         0.104125        -0.581219
 O         3.474322         1.093837        -1.304150
 C         3.043470        -1.394218        -0.620580
 H         0.259718         1.633343        -0.586197
 H        -0.460000         0.093693        -1.123598
 H        -0.575125         0.609866         0.619667
 H         1.209049        -2.378480         0.282380
 H         1.550564        -0.713133         2.538701
 H         3.353021        -1.031918         2.327524
 H         2.875808         2.259579         0.548335
 H         3.256415         1.177857        -2.290509
 H         2.671017        -1.848185        -1.653324
 H         4.157776        -1.828548        -0.378176
