19
Iteration:  4100charge 0 multiplicity 1
 C         0.028271         0.714546        -0.307710
 C         1.319479         0.163221         0.195061
 C         1.871666        -1.270341         0.993729
 C         2.550377        -0.300329         1.915845
 C         2.689688         0.676049         0.670712
 O         3.325022         1.890326         0.623945
 C         2.598431        -0.142902        -0.553093
 O         3.200472         0.530651        -1.568696
 C         2.754647        -1.572570        -0.190174
 H        -0.743923        -0.072457        -0.021926
 H        -0.257794         1.551082         0.423823
 H         0.057668         1.032098        -1.408389
 H         1.101810        -1.885651         1.422972
 H         2.017167         0.169309         2.763906
 H         3.513905        -0.741502         2.243755
 H         3.935375         1.929414        -0.111874
 H         3.475433        -0.132716        -2.160906
 H         2.346344        -2.420838        -0.841374
 H         3.721783        -2.057171         0.200868
