19
Iteration:  4236
 C         0.135026         0.778686        -0.189057
 C         1.470364         0.132950         0.110951
 C         1.776339        -1.242807         1.035260
 C         2.659209        -0.248794         2.013345
 C         2.708970         0.648720         0.741107
 O         3.110017         1.984679         0.605663
 C         2.802440        -0.172243        -0.572382
 O         3.168689         0.351265        -1.784534
 C         2.681953        -1.632045        -0.117999
 H         0.312669         1.584350        -0.927622
 H        -0.349322         0.057392        -0.940900
 H        -0.586740         1.157513         0.521971
 H         1.161580        -2.063223         1.458437
 H         2.005571         0.263467         2.679250
 H         3.457146        -0.660165         2.565368
 H         3.998151         1.989763         0.245497
 H         2.548156         0.839506        -2.233348
 H         1.914167        -2.205247        -0.762335
 H         3.598236        -2.203828         0.083464
