19
Iteration:  3406
 C         0.217016         0.734752        -0.357474
 C         1.382042         0.113624         0.110313
 C         1.797556        -1.192671         0.884176
 C         2.702542        -0.496451         1.860267
 C         2.677672         0.623353         0.767105
 O         2.945001         1.964119         0.940991
 C         2.779206        -0.141803        -0.512697
 O         3.232458         0.566810        -1.598362
 C         2.778499        -1.605018        -0.311507
 H         0.482528         1.673579        -0.866685
 H        -0.294319         0.089853        -1.085741
 H        -0.472475         0.829175         0.556126
 H         1.099568        -1.988715         1.095215
 H         2.035361        -0.117869         2.658071
 H         3.591314        -0.971668         2.221922
 H         3.401540         2.250788         0.093138
 H         2.541473         0.946879        -2.203316
 H         2.291005        -2.261345        -1.015634
 H         3.796347        -2.061224        -0.117526
