19
Iteration:  2805
 C         0.165605         0.760159        -0.309169
 C         1.453796         0.114293         0.164468
 C         1.793164        -1.160433         1.015504
 C         2.775184        -0.354585         1.869586
 C         2.725542         0.615853         0.786622
 O         3.007370         1.944102         0.695755
 C         2.698013        -0.186620        -0.569127
 O         3.218591         0.539112        -1.642609
 C         2.661061        -1.691449        -0.139659
 H        -0.707291         0.053253        -0.090741
 H        -0.068712         1.823419         0.021179
 H         0.179484         0.974151        -1.439777
 H         1.021289        -1.531118         1.641010
 H         2.594456        -0.078741         2.874267
 H         3.819305        -0.685587         1.956139
 H         3.335762         2.117350        -0.284585
 H         2.537383         0.382851        -2.406920
 H         2.137376        -2.322839        -0.962215
 H         3.594216        -2.317924         0.117489
