19
Iteration:  4099
 C         0.018133         0.714175        -0.309579
 C         1.326420         0.164136         0.197499
 C         1.865148        -1.276708         0.992460
 C         2.546559        -0.300060         1.911300
 C         2.694624         0.685815         0.678161
 O         3.325626         1.886852         0.621802
 C         2.606697        -0.138674        -0.552317
 O         3.197701         0.529776        -1.566066
 C         2.751521        -1.568575        -0.189478
 H        -0.776276        -0.047528        -0.007261
 H        -0.258462         1.527006         0.387161
 H         0.054710         1.018811        -1.419195
 H         1.110457        -1.931752         1.423124
 H         2.026432         0.159702         2.799668
 H         3.541476        -0.747087         2.245920
 H         3.962314         1.914569        -0.122280
 H         3.485295        -0.167915        -2.218447
 H         2.343116        -2.394006        -0.833780
 H         3.754301        -2.039368         0.204425
