19
Iteration:  1819charge 0 multiplicity 1
 C         0.171102         0.640548        -0.286663
 C         1.410600         0.001095         0.178114
 C         1.819438        -1.257735         0.827390
 C         2.624422        -0.491895         1.829134
 C         2.674976         0.616139         0.771195
 O         2.903010         1.997895         0.877787
 C         2.781380        -0.144488        -0.608090
 O         3.327402         0.738781        -1.534562
 C         2.755657        -1.609344        -0.348964
 H        -0.585779        -0.010734        -0.679945
 H        -0.362997         1.082492         0.531728
 H         0.456663         1.524337        -0.852301
 H         1.072339        -1.831164         1.275481
 H         2.015306        -0.022051         2.736596
 H         3.566994        -0.970517         2.290837
 H         3.839405         2.253141         0.597363
 H         2.811795         0.629418        -2.385519
 H         2.235626        -2.202898        -1.142157
 H         3.737863        -1.974491        -0.115733
