19
Iteration:  4222charge 0 multiplicity 1
 C         0.219209         0.752068        -0.237421
 C         1.473524         0.129744         0.164305
 C         1.793554        -1.113910         1.027474
 C         2.605390        -0.276123         1.965559
 C         2.793156         0.653150         0.712809
 O         3.048364         2.016232         0.622049
 C         2.678207        -0.260710        -0.593116
 O         3.199147         0.370832        -1.771346
 C         2.685595        -1.701906        -0.136037
 H         0.289104         1.532304        -0.993175
 H        -0.605819        -0.033743        -0.365790
 H        -0.060487         1.288778         0.683565
 H         0.971658        -1.693878         1.414641
 H         1.933881         0.175484         2.702189
 H         3.548928        -0.730393         2.338103
 H         4.035554         2.174044         0.664747
 H         2.317067         0.804400        -2.122241
 H         2.285991        -2.446767        -0.909920
 H         3.668095        -2.143188         0.210170
