19
Iteration:  1617
 C         0.132758         0.627836        -0.233718
 C         1.460025         0.031194         0.072966
 C         1.728680        -1.329877         0.769279
 C         2.552243        -0.498225         1.856095
 C         2.636963         0.609926         0.819698
 O         2.997444         1.961718         1.065071
 C         2.874178        -0.020750        -0.586510
 O         3.337716         0.707600        -1.637060
 C         2.801510        -1.527566        -0.384933
 H        -0.047121         1.714645        -0.258412
 H        -0.151965         0.302384        -1.307532
 H        -0.544415         0.184969         0.427553
 H         1.068750        -2.207379         1.060972
 H         1.888952        -0.277840         2.793604
 H         3.549567        -0.926387         2.278219
 H         2.844950         2.532247         0.279436
 H         2.883440         0.586409        -2.468051
 H         2.469163        -2.037472        -1.241439
 H         3.773475        -1.971858        -0.067111
