19
Iteration:  3089
 C         0.032922         0.604690        -0.325223
 C         1.294064         0.130153         0.275910
 C         1.762755        -1.225059         0.878413
 C         2.716112        -0.383862         1.898210
 C         2.698409         0.657056         0.728110
 O         3.222181         2.009238         0.707705
 C         2.715282        -0.141524        -0.541284
 O         3.284960         0.637644        -1.507734
 C         2.695581        -1.667751        -0.316438
 H         0.249722         0.483714        -1.346711
 H        -0.665375        -0.057863         0.047792
 H        -0.186939         1.624829        -0.033260
 H         1.182590        -1.858754         1.415658
 H         2.019797        -0.133966         2.740284
 H         3.624240        -0.791426         2.443652
 H         3.326904         2.143768        -0.255014
 H         2.878811         0.312469        -2.362720
 H         2.193064        -2.366856        -1.070476
 H         3.614091        -2.067238         0.143870
