19
Iteration:  1942
 C         0.054925         0.645187        -0.348166
 C         1.271161        -0.007221         0.217045
 C         1.863585        -1.295772         0.891111
 C         2.694748        -0.370752         1.855925
 C         2.595824         0.626455         0.758225
 O         3.101410         1.942182         0.860533
 C         2.671023        -0.087630        -0.565302
 O         3.372568         0.681721        -1.536245
 C         2.762747        -1.552663        -0.315708
 H         0.265068         1.729583        -0.563385
 H        -0.230298         0.225392        -1.267192
 H        -0.885929         0.769330         0.290737
 H         1.218329        -2.214794         1.174676
 H         2.172859        -0.163329         2.879934
 H         3.736117        -0.884529         2.092768
 H         3.667580         1.947485         0.032449
 H         2.888645         0.733049        -2.484786
 H         2.220665        -2.245630        -1.061765
 H         3.723512        -2.051301        -0.097649
