19
Iteration:  3908charge 0 multiplicity 1
 C        -0.031734         0.727236        -0.135687
 C         1.359048         0.128772         0.105813
 C         1.747351        -1.144673         0.957615
 C         2.716778        -0.361154         1.876463
 C         2.611277         0.682283         0.793118
 O         3.058141         1.972617         0.823653
 C         2.776471        -0.146576        -0.647709
 O         3.494306         0.378194        -1.754815
 C         2.717866        -1.641098        -0.208618
 H         0.092188         1.330850        -1.019259
 H        -0.789341        -0.007706        -0.398750
 H        -0.435544         1.315280         0.681190
 H         0.898169        -1.776766         1.337324
 H         2.300772        -0.042413         2.856739
 H         3.722018        -0.832459         1.997940
 H         3.464652         2.378742        -0.020778
 H         2.640070         0.629479        -2.345572
 H         2.180516        -2.097004        -0.980225
 H         3.659577        -2.139979        -0.011563
