19
Iteration:  4531
 C         0.068468         0.696313        -0.229571
 C         1.404742         0.161225         0.094901
 C         1.776616        -1.051197         1.166083
 C         2.710901        -0.162381         1.884620
 C         2.743031         0.693484         0.666917
 O         3.407388         1.951156         0.629767
 C         2.668933        -0.270960        -0.597048
 O         3.087193         0.288517        -1.804086
 C         2.577555        -1.727638        -0.047217
 H         0.029081         0.947362        -1.236746
 H        -0.760864        -0.095265        -0.277089
 H        -0.394624         1.407301         0.418963
 H         1.001381        -1.546032         1.798474
 H         2.218292         0.439386         2.635330
 H         3.807906        -0.395146         2.245165
 H         2.777718         2.543037         0.201090
 H         3.949030         0.720107        -1.707191
 H         1.935915        -2.368407        -0.711160
 H         3.453935        -2.250948         0.234248
