19
Iteration:  1544
 C         0.117156         0.695165        -0.315448
 C         1.447767         0.133007         0.065061
 C         1.863224        -1.335604         0.749923
 C         2.580922        -0.558240         1.907694
 C         2.651812         0.550759         0.839621
 O         2.922039         1.953491         0.944356
 C         2.738389        -0.042925        -0.537638
 O         3.298023         0.826089        -1.484543
 C         2.854368        -1.642450        -0.448932
 H         0.020721         0.917703        -1.394229
 H        -0.612708        -0.141076        -0.100131
 H        -0.313677         1.473078         0.396578
 H         1.216693        -2.216698         1.038497
 H         1.874877        -0.182528         2.682286
 H         3.487101        -1.001185         2.229866
 H         3.761116         2.108173         0.575311
 H         3.126774         0.569467        -2.323428
 H         2.358434        -2.128662        -1.392722
 H         3.840744        -2.142684        -0.092834
