19
Iteration:  2893
 C        -0.006022         0.623413        -0.216206
 C         1.385802         0.093796         0.066108
 C         1.735759        -1.168330         0.955504
 C         2.624829        -0.259345         1.884996
 C         2.707507         0.628731         0.639011
 O         3.305745         1.919078         0.858127
 C         2.763020        -0.164040        -0.568364
 O         3.189864         0.513499        -1.690392
 C         2.761384        -1.558241        -0.170387
 H        -0.431610         0.821090         0.815281
 H         0.041673         1.472341        -0.947091
 H        -0.661298        -0.220911        -0.609647
 H         1.126603        -1.855266         1.433361
 H         2.149076         0.235132         2.705810
 H         3.575283        -0.667522         2.190112
 H         3.439386         2.251971        -0.012404
 H         2.601636         0.330405        -2.531890
 H         2.308054        -2.250893        -0.909313
 H         3.590099        -2.074636         0.184395
