19
Iteration:  3468charge 0 multiplicity 1
 C         0.101897         0.633827        -0.108920
 C         1.383596         0.101481         0.067319
 C         1.694445        -1.209064         0.757887
 C         2.567526        -0.453772         1.900685
 C         2.637288         0.629714         0.713150
 O         3.033467         1.944414         0.886276
 C         2.769701        -0.033454        -0.562665
 O         3.369487         0.620431        -1.637077
 C         2.826632        -1.577642        -0.311135
 H        -0.115422         1.186620        -1.043152
 H        -0.603739        -0.198341        -0.124496
 H        -0.239240         1.312375         0.616635
 H         0.968709        -1.954671         0.890204
 H         1.727010         0.001761         2.546819
 H         3.610663        -0.836728         2.248087
 H         4.042753         1.957869         0.670366
 H         3.322715        -0.308447        -2.161433
 H         2.538546        -2.177604        -1.152757
 H         3.852719        -1.790754         0.136038
