19
Iteration:  4001charge 0 multiplicity 1
 C         0.117714         0.808358        -0.325678
 C         1.382919         0.186332         0.210850
 C         1.811091        -1.257763         0.940578
 C         2.714739        -0.379716         1.873992
 C         2.759210         0.652228         0.764239
 O         3.057271         2.011401         0.824573
 C         2.692409        -0.152942        -0.513122
 O         3.163900         0.389939        -1.743941
 C         2.753952        -1.644887        -0.178567
 H        -0.054575         1.810596         0.170885
 H         0.431018         1.188695        -1.353145
 H        -0.696569         0.013956        -0.441500
 H         1.061426        -1.899073         1.383213
 H         2.149221        -0.101860         2.759750
 H         3.609932        -0.864638         2.192261
 H         3.742566         2.216073         0.170494
 H         2.671395         0.054103        -2.450058
 H         2.296197        -2.187028        -1.054237
 H         3.789276        -1.879486         0.159240
