19
Iteration:  4773charge 0 multiplicity 1
 C         0.166674         0.890577        -0.242829
 C         1.377491         0.145750         0.258401
 C         1.853849        -1.104604         1.253195
 C         2.724759        -0.014220         1.892369
 C         2.701854         0.704593         0.614948
 O         3.369332         1.937961         0.383515
 C         2.604963        -0.277528        -0.586380
 O         2.975445         0.027939        -1.852112
 C         2.637087        -1.701482         0.029626
 H         0.154867         0.857261        -1.309302
 H        -0.723016         0.229582         0.073295
 H         0.152747         1.919435         0.140970
 H         1.160081        -1.669821         1.874148
 H         2.082005         0.429207         2.572058
 H         3.638578        -0.344949         2.352981
 H         3.249891         2.563514         1.175911
 H         3.539244         0.912291        -1.720657
 H         2.140707        -2.554964        -0.576779
 H         3.613156        -2.219826         0.345450
