19
Iteration:  1906charge 0 multiplicity 1
 C         0.060815         0.686325        -0.301474
 C         1.429946         0.090609         0.062752
 C         1.824015        -1.227304         0.757541
 C         2.587514        -0.406428         1.975756
 C         2.717897         0.559221         0.795872
 O         3.062822         1.940381         0.948341
 C         2.825785        -0.120916        -0.585979
 O         3.190083         0.702200        -1.619941
 C         2.842458        -1.616145        -0.234636
 H         0.146469         1.189658        -1.295615
 H        -0.572846        -0.266794        -0.393385
 H        -0.423901         1.277618         0.484574
 H         0.981889        -1.878276         0.963655
 H         1.938878        -0.304787         2.929336
 H         3.562350        -0.827209         2.164633
 H         3.305829         2.263687        -0.017008
 H         2.798547         0.245089        -2.513752
 H         2.245496        -2.097856        -1.112557
 H         3.841439        -2.144787        -0.001760
