19
Iteration:  2322charge 0 multiplicity 1
 C        -0.012179         0.686286        -0.164528
 C         1.408088         0.055303         0.076552
 C         1.845717        -1.247402         0.990670
 C         2.609115        -0.278350         1.936974
 C         2.573373         0.662388         0.729951
 O         3.188294         1.961557         0.845853
 C         2.674581        -0.120480        -0.630922
 O         3.338622         0.446576        -1.807255
 C         2.815699        -1.572473        -0.152041
 H        -0.138284         1.767547         0.104697
 H        -0.394456         0.599173        -1.254384
 H        -0.870221         0.020238         0.259390
 H         1.102614        -1.952849         1.348903
 H         2.041841         0.195872         2.724888
 H         3.551768        -0.664458         2.206079
 H         3.799247         2.084042         0.162268
 H         2.677240         0.646183        -2.511503
 H         2.262245        -2.059963        -0.966953
 H         3.899744        -2.078424        -0.040424
