19
Iteration:  4035
 C         0.062562         0.630534        -0.317210
 C         1.442287         0.130805         0.161652
 C         1.803691        -1.150735         0.995372
 C         2.713288        -0.247077         1.911039
 C         2.783879         0.719985         0.730623
 O         3.154792         1.979911         0.891920
 C         2.775491        -0.156349        -0.568452
 O         3.244492         0.410044        -1.746317
 C         2.574738        -1.734307        -0.223305
 H        -0.623718         0.884680         0.556430
 H         0.330003         1.621790        -0.867440
 H        -0.574768         0.055607        -1.038826
 H         0.967668        -1.726485         1.375363
 H         2.097018         0.083416         2.733123
 H         3.629213        -0.719270         2.191150
 H         3.255592         2.583064         0.116142
 H         2.565445         0.737691        -2.451822
 H         1.987789        -2.341679        -0.992230
 H         3.445183        -2.423285        -0.132319
