19
Iteration:  3132
 C        -0.009804         0.655855        -0.320543
 C         1.347924         0.056258         0.178094
 C         1.853010        -1.239539         0.918504
 C         2.664678        -0.336416         1.844433
 C         2.686507         0.699118         0.836861
 O         3.169151         1.996265         0.895929
 C         2.654560        -0.117027        -0.587848
 O         3.305477         0.552837        -1.722507
 C         2.752758        -1.690744        -0.232098
 H        -0.243639         0.143986        -1.282670
 H        -0.811316         0.527688         0.396823
 H         0.029012         1.755858        -0.551866
 H         1.141044        -1.907072         1.242610
 H         2.153781        -0.004113         2.787184
 H         3.588598        -0.708640         2.331491
 H         3.907834         2.144781         0.172992
 H         2.695079         0.661611        -2.406046
 H         2.120370        -2.272706        -0.944615
 H         3.761044        -2.141725        -0.074549
