19
Iteration:  3106charge 0 multiplicity 1
 C         0.048049         0.558149        -0.331549
 C         1.424541         0.145671         0.140544
 C         1.753918        -1.172538         0.953651
 C         2.695432        -0.365924         1.843005
 C         2.697882         0.647637         0.802868
 O         3.161408         1.885345         0.734085
 C         2.719218        -0.132411        -0.511404
 O         3.258603         0.644912        -1.554483
 C         2.711226        -1.585193        -0.217063
 H        -0.165910         0.428951        -1.449484
 H        -0.781645        -0.005079         0.289817
 H        -0.111462         1.660020        -0.139232
 H         0.862366        -1.884451         1.217673
 H         2.383840         0.016503         2.825138
 H         3.647508        -0.852458         2.040984
 H         3.521300         2.113294        -0.205665
 H         2.886712         0.405387        -2.408136
 H         2.137673        -1.996885        -1.002692
 H         3.629229        -2.195433        -0.103351
