19
Iteration:  3092charge 0 multiplicity 1
 C         0.054096         0.605567        -0.308893
 C         1.298820         0.123134         0.263638
 C         1.756107        -1.192936         0.858011
 C         2.714991        -0.376792         1.896796
 C         2.712269         0.648868         0.716964
 O         3.210880         1.989565         0.708637
 C         2.722154        -0.113099        -0.526360
 O         3.277698         0.637134        -1.493991
 C         2.706888        -1.668725        -0.304560
 H         0.211804         0.391441        -1.405161
 H        -0.741007        -0.113132         0.056673
 H        -0.242462         1.640354        -0.068918
 H         1.079895        -1.870102         1.454291
 H         2.029963        -0.090829         2.673588
 H         3.677273        -0.841229         2.331184
 H         3.310315         2.051084        -0.221273
 H         2.846129         0.268835        -2.370610
 H         2.152550        -2.371755        -1.029364
 H         3.608921        -2.078997         0.094747
