19
Iteration:  1167
 C         0.095934         0.593304        -0.269194
 C         1.465775         0.033535         0.074256
 C         1.811118        -1.414495         0.652773
 C         2.437622        -0.617945         1.883983
 C         2.574422         0.578191         0.920052
 O         2.954857         1.916631         1.126706
 C         2.774905         0.051698        -0.581089
 O         3.418460         0.850499        -1.563774
 C         2.986117        -1.476148        -0.510147
 H         0.339534         1.630061        -0.668595
 H        -0.496907        -0.009496        -1.039242
 H        -0.488813         0.711659         0.637978
 H         0.902371        -2.082897         0.711994
 H         1.561504        -0.305093         2.660720
 H         3.374465        -1.075729         2.450765
 H         3.182635         2.185792         0.238259
 H         2.829602         1.042315        -2.323449
 H         2.545271        -1.991748        -1.377652
 H         3.861624        -2.037097        -0.240199
