19
Iteration:  3335
 C        -0.023120         0.664958        -0.401061
 C         1.374470         0.112849         0.163610
 C         1.842438        -1.239653         0.915884
 C         2.627797        -0.441775         1.920390
 C         2.645034         0.647417         0.763976
 O         3.196435         1.939584         0.962082
 C         2.750235        -0.068095        -0.620085
 O         3.235755         0.694499        -1.679104
 C         2.790993        -1.670750        -0.216940
 H        -0.171658         1.661293        -0.012263
 H         0.070291         0.743834        -1.484806
 H        -0.735872        -0.040639        -0.162975
 H         1.006808        -1.897393         1.331295
 H         2.087469        -0.312176         2.868628
 H         3.626611        -1.011684         2.127323
 H         3.481176         2.227596         0.112007
 H         2.899416         0.332143        -2.524421
 H         2.370547        -2.280033        -1.070934
 H         3.686981        -2.303465         0.078680
