19
Iteration:  2979
 C         0.136211         0.819839        -0.220680
 C         1.388500         0.075510         0.142478
 C         1.861338        -1.312186         0.974742
 C         2.733498        -0.381637         1.852902
 C         2.674632         0.626132         0.732941
 O         2.941422         2.066946         0.781828
 C         2.664447        -0.174124        -0.626219
 O         3.289959         0.459313        -1.699619
 C         2.764639        -1.659053        -0.194722
 H         0.410526         1.854091         0.027405
 H        -0.279200         0.929651        -1.196824
 H        -0.690575         0.674673         0.513505
 H         1.121478        -1.933014         1.391623
 H         2.022352         0.132105         2.575800
 H         3.657125        -0.819767         2.295286
 H         3.921613         2.321587         0.590206
 H         2.972963         0.233885        -2.514354
 H         2.092323        -2.285251        -0.908842
 H         3.713715        -2.152165         0.058932
