19
Iteration:   259charge 0 multiplicity 1
 C         0.094158         0.567520        -0.539167
 C         1.451870        -0.005402        -0.059576
 C         1.851879        -1.408148         0.395683
 C         2.531467        -0.788775         1.703344
 C         2.544151         0.434613         0.928274
 O         2.735513         1.710694         1.432739
 C         2.906275         0.135094        -0.509900
 O         3.364494         1.276550        -1.196118
 C         3.033385        -1.468464        -0.609226
 H        -0.616275         0.301337         0.289268
 H         0.098616         1.677027        -0.437966
 H        -0.233989         0.391987        -1.592286
 H         1.157939        -2.444459         0.454429
 H         1.843266        -0.738491         2.604696
 H         3.448974        -1.087140         2.215090
 H         3.475117         2.251961         0.999410
 H         2.989643         1.373718        -2.019388
 H         2.688638        -1.843394        -1.569626
 H         3.912629        -1.951928        -0.324592
