19
Iteration:  4248charge 0 multiplicity 1
 C         0.100367         0.776040        -0.312587
 C         1.362866         0.080753         0.241772
 C         1.831667        -1.176413         1.063825
 C         2.641253        -0.254752         1.958160
 C         2.704103         0.659081         0.776503
 O         3.164922         1.983909         0.621284
 C         2.728327        -0.165919        -0.510566
 O         3.229488         0.317750        -1.802359
 C         2.724029        -1.629084        -0.170809
 H         0.299710         1.830993        -0.532106
 H        -0.503787         0.211829        -1.035275
 H        -0.501560         0.758480         0.614886
 H         1.046952        -1.821658         1.514586
 H         2.026349         0.183602         2.743558
 H         3.579763        -0.523720         2.350125
 H         3.882588         1.865727        -0.083683
 H         2.385691         0.857547        -2.130873
 H         2.101106        -2.088315        -0.976503
 H         3.594566        -2.271482        -0.038735
