19
Iteration:  1138charge 0 multiplicity 1
 C         0.024392         0.698305        -0.317681
 C         1.399809         0.096955        -0.006645
 C         1.850130        -1.383299         0.642770
 C         2.644920        -0.611338         1.748226
 C         2.621649         0.558711         0.835517
 O         2.815774         1.853224         1.184630
 C         2.812650        -0.016561        -0.549100
 O         3.404842         0.871427        -1.480456
 C         2.926207        -1.547713        -0.389633
 H        -0.000840         1.416533        -1.185900
 H        -0.679947        -0.035510        -0.766802
 H        -0.258705         1.280868         0.544953
 H         1.070219        -2.035721         0.866096
 H         2.106141        -0.356127         2.687598
 H         3.588287        -0.957641         2.125029
 H         3.357191         2.178392         0.507459
 H         3.030333         0.930210        -2.286530
 H         2.472410        -2.081441        -1.245919
 H         3.754967        -2.156621         0.031388
