19
Iteration:  4707charge 0 multiplicity 1
 C         0.067575         0.631553        -0.238187
 C         1.366381         0.220696         0.222194
 C         1.799872        -0.986391         1.183244
 C         2.817746        -0.113381         1.963117
 C         2.828932         0.711197         0.682365
 O         3.422227         1.976980         0.350253
 C         2.577279        -0.251936        -0.519034
 O         3.109388         0.150553        -1.729171
 C         2.485684        -1.735732        -0.112604
 H        -0.672864        -0.121494        -0.111911
 H        -0.370828         1.564878         0.259663
 H        -0.076643         1.007477        -1.243948
 H         1.072167        -1.462905         1.821933
 H         2.253524         0.288294         2.727712
 H         3.716653        -0.451812         2.431956
 H         2.691410         2.586704         0.312966
 H         3.766559         0.831949        -1.530917
 H         1.730922        -2.321721        -0.757703
 H         3.399772        -2.374352         0.050432
