19
Iteration:  4249
 C         0.099020         0.769901        -0.316169
 C         1.356013         0.081026         0.245299
 C         1.834304        -1.168861         1.064209
 C         2.641482        -0.254007         1.951063
 C         2.703263         0.672922         0.770740
 O         3.169331         1.978466         0.624382
 C         2.718632        -0.167108        -0.508830
 O         3.233171         0.314637        -1.797583
 C         2.720539        -1.637163        -0.178191
 H         0.317538         1.840813        -0.525837
 H        -0.487992         0.255678        -1.037193
 H        -0.501988         0.719986         0.620468
 H         1.045004        -1.816990         1.514214
 H         2.044714         0.153434         2.797079
 H         3.589911        -0.532115         2.373029
 H         3.872042         1.897773        -0.105947
 H         2.380624         0.853332        -2.118940
 H         2.134767        -2.079863        -0.966060
 H         3.619001        -2.236695        -0.033223
