19
Iteration:  4077charge 0 multiplicity 1
 C        -0.025258         0.673883        -0.324293
 C         1.266869         0.085915         0.135403
 C         1.763567        -1.125973         0.964329
 C         2.706028        -0.360944         1.993132
 C         2.613078         0.656822         0.786974
 O         3.351909         1.924403         0.666986
 C         2.672523        -0.104465        -0.502047
 O         3.240128         0.534133        -1.682916
 C         2.779803        -1.580023        -0.186243
 H        -0.797111         0.002760         0.190183
 H        -0.160498         1.719879        -0.020639
 H        -0.061731         0.536966        -1.470697
 H         0.931935        -1.649665         1.425120
 H         2.088134         0.072884         2.816793
 H         3.668126        -0.825064         2.294635
 H         3.920457         1.797070        -0.142525
 H         2.962658        -0.150585        -2.362816
 H         2.350401        -2.230868        -0.990125
 H         3.637512        -2.230388         0.198152
