19
Iteration:  2967
 C         0.114154         0.867542        -0.173910
 C         1.386489         0.075202         0.065687
 C         1.825561        -1.240800         0.979253
 C         2.748748        -0.388143         1.908332
 C         2.656847         0.704595         0.768737
 O         2.935585         2.041767         0.731848
 C         2.650375        -0.213763        -0.648359
 O         3.340123         0.534273        -1.679683
 C         2.727353        -1.764236        -0.186536
 H         0.181878         1.901897         0.126721
 H        -0.037450         0.713683        -1.218020
 H        -0.698289         0.292588         0.288499
 H         1.066806        -1.950270         1.376631
 H         2.449738        -0.205962         3.022588
 H         3.806660        -0.773036         2.018784
 H         3.918549         2.110561         0.496489
 H         2.874003         0.211091        -2.533635
 H         2.245447        -2.531011        -0.905907
 H         3.786675        -2.151095         0.020701
