19
Iteration:  2949charge 0 multiplicity 1
 C         0.075505         0.751574        -0.198364
 C         1.356732         0.145302         0.199459
 C         1.756736        -1.181938         0.930470
 C         2.806103        -0.378936         1.815565
 C         2.664876         0.634620         0.748419
 O         2.953061         1.929876         0.668312
 C         2.793193        -0.183464        -0.550342
 O         3.328005         0.507127        -1.599157
 C         2.724242        -1.628177        -0.216664
 H         0.145509         1.767332         0.320589
 H        -0.127075         1.007096        -1.277927
 H        -0.763269         0.091318         0.117158
 H         1.014915        -1.744294         1.399445
 H         2.374969         0.032903         2.680068
 H         3.779866        -0.818165         2.058803
 H         3.820411         2.063885         0.183608
 H         2.797465         0.321976        -2.446904
 H         2.118410        -2.146519        -0.969400
 H         3.539152        -2.163162         0.174964
