19
Iteration:  4685
 C         0.018626         0.694570        -0.162699
 C         1.375244         0.145429         0.194081
 C         1.801823        -1.044176         1.209154
 C         2.781423        -0.036330         1.877500
 C         2.741205         0.728112         0.598986
 O         3.410705         1.916180         0.539687
 C         2.711036        -0.298536        -0.583814
 O         3.124583         0.158640        -1.849247
 C         2.518503        -1.663865        -0.007976
 H        -0.738169         0.111226         0.302005
 H        -0.288100         1.811967        -0.130038
 H        -0.255031         0.605213        -1.232871
 H         1.009486        -1.659430         1.582959
 H         2.422366         0.530407         2.658044
 H         3.728665        -0.405969         2.235419
 H         2.850210         2.602968         0.065260
 H         3.748351         0.899849        -1.706481
 H         1.659099        -2.245005        -0.519720
 H         3.263180        -2.453729         0.270307
