19
Iteration:   587charge 0 multiplicity 1
 C         0.136200         0.671242        -0.391467
 C         1.339849        -0.055460        -0.034545
 C         1.936588        -1.481244         0.560003
 C         2.453948        -0.701570         1.816175
 C         2.495408         0.561785         0.833260
 O         2.854410         1.760108         1.342087
 C         2.834706         0.051426        -0.572893
 O         3.416461         1.030145        -1.364977
 C         3.021195        -1.390511        -0.538057
 H        -0.809701         0.129008        -0.219320
 H        -0.011114         1.607677         0.136041
 H         0.240073         0.881775        -1.503265
 H         1.445139        -2.419131         0.469945
 H         1.749468        -0.431633         2.563206
 H         3.462162        -0.921670         2.236436
 H         2.983657         2.450043         0.749036
 H         2.801836         1.117140        -2.220093
 H         2.570327        -1.773888        -1.465743
 H         3.947627        -1.836683        -0.333956
