19
Iteration:  3524
 C         0.112799         0.710376        -0.266086
 C         1.343168         0.014735         0.109773
 C         1.758915        -1.252520         0.881948
 C         2.650727        -0.443123         1.868451
 C         2.629601         0.623696         0.745293
 O         3.016976         1.947076         0.845632
 C         2.698057        -0.090471        -0.546851
 O         3.434069         0.574397        -1.548603
 C         2.760861        -1.544929        -0.298172
 H         0.445254         1.538395        -0.903672
 H        -0.611638         0.191537        -0.880660
 H        -0.384013         1.058704         0.599175
 H         1.233348        -2.071093         1.223885
 H         2.211859        -0.309774         2.961442
 H         3.767393        -0.710793         2.051399
 H         3.182147         2.231240        -0.054569
 H         2.718980         0.840773        -2.165868
 H         2.343861        -1.956023        -1.170871
 H         3.755379        -2.058671        -0.246405
