19
Iteration:   454
 C         0.077959         0.609889        -0.364300
 C         1.431489         0.062138        -0.068996
 C         1.914221        -1.380362         0.416955
 C         2.481863        -0.843182         1.824198
 C         2.462683         0.463527         0.995899
 O         2.757249         1.816163         1.340259
 C         2.867054         0.111895        -0.565580
 O         3.463961         1.065527        -1.350643
 C         3.056776        -1.370729        -0.595617
 H         0.038365         1.664437        -0.481966
 H        -0.277443         0.188396        -1.288950
 H        -0.630834         0.258118         0.521191
 H         1.147512        -2.261153         0.484004
 H         1.573536        -0.809552         2.515539
 H         3.371572        -1.332236         2.284475
 H         3.070091         2.299067         0.555553
 H         3.090242         1.029134        -2.240136
 H         2.803285        -1.901085        -1.603047
 H         4.097849        -1.754223        -0.176406
