19
Iteration:  3703
 C         0.012707         0.787633        -0.193582
 C         1.381825         0.135462         0.018772
 C         1.790254        -1.249632         0.892762
 C         2.664297        -0.466082         1.946985
 C         2.552715         0.650719         0.786739
 O         3.095521         1.902636         0.727526
 C         2.688290        -0.133099        -0.633530
 O         3.355314         0.626623        -1.596943
 C         2.817558        -1.584262        -0.200463
 H        -0.477204         0.438108         0.669570
 H         0.151581         1.817710        -0.080657
 H        -0.532658         0.520663        -1.117622
 H         1.198131        -2.188632         1.231151
 H         1.971433        -0.208924         2.783829
 H         3.640358        -0.940458         2.111031
 H         3.823794         1.844993         0.000093
 H         3.269333         0.118640        -2.413503
 H         2.404875        -2.343535        -0.832360
 H         3.770154        -1.893212         0.234820
