19
Iteration:   624
 C        -0.000356         0.571513        -0.345185
 C         1.460844         0.056895        -0.017393
 C         1.826517        -1.360842         0.475153
 C         2.450671        -0.778811         1.831946
 C         2.552863         0.487184         0.853585
 O         2.840204         1.852616         1.220348
 C         2.942809         0.089221        -0.522109
 O         3.437086         1.089789        -1.360731
 C         2.993769        -1.443124        -0.486483
 H        -0.461934        -0.350176        -0.772160
 H        -0.543206         0.904142         0.615626
 H        -0.141368         1.387304        -1.002957
 H         1.116297        -2.174035         0.512744
 H         1.761240        -0.754358         2.735466
 H         3.392088        -1.398567         2.060875
 H         3.420077         2.263938         0.623959
 H         3.131143         0.912016        -2.297315
 H         2.545898        -1.895187        -1.425927
 H         3.947456        -2.106845        -0.167648
