19
Iteration:  4742
 C         0.031272         0.822511        -0.333150
 C         1.390633         0.102041         0.243731
 C         1.748926        -0.998817         1.266288
 C         2.859228        -0.152612         1.910011
 C         2.740888         0.724912         0.662900
 O         3.356211         1.854567         0.274390
 C         2.619661        -0.259009        -0.496944
 O         3.063204         0.185030        -1.770835
 C         2.619047        -1.672085         0.028541
 H        -0.380004         0.180952        -1.134750
 H        -0.625744         0.790191         0.530427
 H         0.300604         1.782417        -0.782313
 H         0.991215        -1.469568         1.905962
 H         2.412084         0.319103         2.771016
 H         3.786498        -0.693014         2.136596
 H         3.206828         2.391943         1.032687
 H         3.317591         1.042927        -1.828630
 H         2.057641        -2.359433        -0.586968
 H         3.436280        -2.126264         0.586724
