19
Iteration:  3897charge 0 multiplicity 1
 C        -0.056760         0.711359        -0.175675
 C         1.316765         0.084723         0.078910
 C         1.747989        -1.143399         0.964618
 C         2.716021        -0.321218         1.877113
 C         2.709262         0.653246         0.676554
 O         3.102544         1.990375         0.888246
 C         2.720955        -0.146613        -0.585432
 O         3.464787         0.386223        -1.690418
 C         2.696393        -1.611993        -0.286787
 H        -0.133024         1.264452        -1.100352
 H        -0.812592        -0.089472        -0.188124
 H        -0.278082         1.444985         0.584070
 H         1.092597        -1.916146         1.472553
 H         2.297650         0.041847         2.846402
 H         3.735773        -0.717013         2.082343
 H         3.343099         2.248974        -0.027068
 H         3.046231         0.733764        -2.609377
 H         2.171182        -2.333292        -0.800772
 H         3.587261        -2.106761         0.074117
