19
Iteration:   351charge 0 multiplicity 1
 C         0.120382         0.555829        -0.477768
 C         1.462889         0.046133        -0.039322
 C         1.946746        -1.411312         0.526172
 C         2.488006        -0.738361         1.752698
 C         2.432578         0.436757         0.965544
 O         2.729285         1.749267         1.487584
 C         2.898918         0.071778        -0.603985
 O         3.455434         1.162371        -1.331161
 C         2.981719        -1.388624        -0.676209
 H        -0.023240         0.295469        -1.577540
 H        -0.736723         0.161693         0.140859
 H         0.101181         1.617097        -0.394740
 H         1.277118        -2.149077         0.641194
 H         1.707464        -0.816799         2.439351
 H         3.390140        -0.989810         2.218595
 H         3.436370         2.146083         0.977723
 H         2.827420         1.292707        -2.124218
 H         2.492639        -1.736922        -1.557916
 H         3.924024        -1.949987        -0.512079
