19
Iteration:  1305
 C         0.127688         0.658007        -0.351354
 C         1.418364         0.072213         0.065269
 C         1.774753        -1.335798         0.680385
 C         2.580985        -0.596963         1.746187
 C         2.567973         0.584126         0.853843
 O         2.936410         1.871487         1.134536
 C         2.753767         0.028618        -0.573968
 O         3.297317         0.807221        -1.552350
 C         2.995380        -1.488068        -0.326101
 H        -0.435226         1.012426         0.492107
 H         0.275783         1.515533        -0.964725
 H        -0.614729        -0.080599        -0.861565
 H         1.031533        -2.145507         1.025525
 H         1.956270        -0.614992         2.676654
 H         3.579394        -1.137482         2.013632
 H         3.830880         2.035529         0.658041
 H         2.628364         0.754390        -2.389863
 H         2.779571        -2.130905        -1.159843
 H         3.925151        -1.810410         0.165069
