19
Iteration:  2777
 C         0.074539         0.830622        -0.221592
 C         1.365133         0.072319         0.219869
 C         1.812982        -1.304009         0.978011
 C         2.703653        -0.307758         1.854715
 C         2.656445         0.665583         0.704247
 O         3.095435         2.015696         0.747840
 C         2.647778        -0.155907        -0.558605
 O         3.280963         0.442245        -1.709523
 C         2.768418        -1.671058        -0.180065
 H        -0.688020         0.077655        -0.296382
 H        -0.175614         1.676263         0.402584
 H         0.196643         1.283528        -1.180683
 H         1.063430        -1.912297         1.534076
 H         2.299000         0.249903         2.738407
 H         3.744261        -0.576802         2.224577
 H         3.617239         2.160115        -0.120306
 H         2.887438        -0.112076        -2.517389
 H         2.273871        -2.268387        -0.884658
 H         3.737672        -2.150065         0.018938
