19
Iteration:   293charge 0 multiplicity 1
 C         0.132563         0.595302        -0.592780
 C         1.335589        -0.000633         0.079868
 C         1.935452        -1.465735         0.387787
 C         2.484980        -0.849758         1.803450
 C         2.395922         0.497079         1.038482
 O         2.885649         1.711908         1.453337
 C         2.749434         0.118176        -0.536286
 O         3.405065         1.173492        -1.291644
 C         3.111227        -1.260718        -0.667801
 H        -0.721458        -0.176146        -0.626981
 H        -0.211070         1.414268         0.088653
 H         0.229863         0.981516        -1.592857
 H         1.237816        -2.408067         0.399900
 H         1.726424        -0.829794         2.580060
 H         3.493347        -1.043610         2.104480
 H         3.174844         2.016570         0.485404
 H         3.109575         0.905145        -2.140550
 H         2.888925        -1.685198        -1.615887
 H         4.002878        -1.620743        -0.296229
