19
Iteration:  3593charge 0 multiplicity 1
 C         0.116626         0.736494        -0.395584
 C         1.413851         0.078870         0.123641
 C         1.854790        -1.299638         0.846074
 C         2.645297        -0.352409         1.952117
 C         2.665383         0.649875         0.859961
 O         3.072839         1.942485         1.002481
 C         2.784807        -0.072689        -0.539290
 O         3.164124         0.603791        -1.802849
 C         2.758306        -1.621699        -0.278473
 H        -0.002556         1.760142        -0.211892
 H         0.130077         0.772185        -1.442813
 H        -0.810821         0.179678        -0.148881
 H         1.027627        -2.001973         1.347504
 H         1.843296        -0.210397         2.815167
 H         3.643350        -0.814715         2.337540
 H         4.110285         2.005295         0.833935
 H         2.717770         0.044729        -2.592066
 H         2.351270        -2.396537        -0.932297
 H         3.655219        -2.181825         0.070824
