19
Iteration:  2587
 C         0.092272         0.720777        -0.272035
 C         1.414806         0.172933         0.082737
 C         1.784740        -1.221005         1.043229
 C         2.694758        -0.276451         1.912855
 C         2.654228         0.704537         0.740921
 O         3.235275         1.972504         0.815029
 C         2.747722        -0.180952        -0.563302
 O         3.098853         0.373034        -1.836670
 C         2.812899        -1.611954        -0.081627
 H        -0.293156         0.467867        -1.287205
 H        -0.570049         0.289810         0.526208
 H        -0.087338         1.801687        -0.307631
 H         0.881930        -1.747018         1.432601
 H         1.994147         0.075059         2.702996
 H         3.642656        -0.899465         2.221561
 H         3.585559         2.101141        -0.135366
 H         2.278457         0.244647        -2.430386
 H         2.310249        -2.213184        -0.789753
 H         3.829193        -2.030683         0.149056
