19
Iteration:  1734
 C         0.068144         0.668007        -0.257777
 C         1.398025         0.032150         0.035315
 C         1.825061        -1.329613         0.796771
 C         2.562602        -0.378108         1.917505
 C         2.601037         0.613430         0.828304
 O         3.048188         1.922630         1.074941
 C         2.791489        -0.087396        -0.561872
 O         3.365727         0.721075        -1.716922
 C         2.855719        -1.616388        -0.360013
 H        -0.754702         0.183145         0.384408
 H         0.055110         1.717006        -0.106002
 H        -0.316042         0.305633        -1.316783
 H         1.125030        -2.057426         1.277660
 H         2.028189         0.026243         2.721952
 H         3.497154        -0.760695         2.296744
 H         3.012027         2.373321         0.191713
 H         2.777285         0.717192        -2.505784
 H         2.314428        -2.100468        -1.202027
 H         3.750506        -2.211410        -0.150723
