19
Iteration:  4085charge 0 multiplicity 1
 C        -0.062370         0.692499        -0.298044
 C         1.311379         0.127918         0.142542
 C         1.727250        -1.208345         0.981370
 C         2.670885        -0.321033         1.928345
 C         2.652656         0.673155         0.834684
 O         3.358740         1.914786         0.616786
 C         2.682593        -0.138302        -0.486705
 O         3.218750         0.524281        -1.656990
 C         2.771246        -1.565790        -0.161326
 H        -0.904148         0.030924        -0.097686
 H        -0.202513         1.674207        -0.050751
 H        -0.068846         0.735911        -1.396258
 H         1.176559        -2.103942         1.370163
 H         1.971826         0.014563         2.755357
 H         3.676642        -0.736118         2.316722
 H         3.966405         1.659254        -0.103293
 H         3.233370        -0.059742        -2.402702
 H         2.345864        -2.110852        -0.959072
 H         3.849349        -1.929551         0.013741
