19
Iteration:  1663charge 0 multiplicity 1
 C         0.123327         0.643411        -0.425827
 C         1.376441         0.060100         0.150655
 C         1.803474        -1.365982         0.831265
 C         2.703861        -0.497044         1.795892
 C         2.610230         0.611611         0.798475
 O         2.979922         1.926257         0.977423
 C         2.660227        -0.028107        -0.550365
 O         3.298375         0.765836        -1.489508
 C         2.853803        -1.569225        -0.352391
 H        -0.154653         1.549621         0.149900
 H         0.210845         1.094964        -1.479479
 H        -0.738558        -0.023811        -0.217336
 H         1.008428        -2.112921         1.073300
 H         2.214673        -0.102274         2.833555
 H         3.718876        -0.926912         2.141863
 H         3.872109         2.057181         0.484682
 H         2.830449         0.571124        -2.371714
 H         2.503341        -2.148842        -1.187508
 H         3.827208        -1.969836        -0.104253
