19
Iteration:  2836
 C         0.130897         0.674141        -0.352043
 C         1.360166         0.040115         0.205831
 C         1.869531        -1.258700         1.022875
 C         2.691773        -0.318891         1.930511
 C         2.748580         0.644599         0.787863
 O         3.188949         2.028713         0.695146
 C         2.675382        -0.120426        -0.539093
 O         3.173552         0.476734        -1.645427
 C         2.671129        -1.622267        -0.236781
 H        -0.890084         0.371461        -0.067398
 H         0.107595         1.715268        -0.050986
 H         0.135388         0.552573        -1.480572
 H         1.169129        -1.802518         1.689199
 H         2.083723         0.086451         2.750509
 H         3.658506        -0.654480         2.185448
 H         3.592695         2.168638        -0.165550
 H         2.422933         0.467435        -2.182427
 H         1.935567        -1.972091        -1.002027
 H         3.548883        -2.171965        -0.207122
