19
Iteration:  2590
 C         0.098444         0.731305        -0.288106
 C         1.405333         0.175689         0.086425
 C         1.814138        -1.188595         1.044755
 C         2.685913        -0.271577         1.917934
 C         2.653528         0.708547         0.761338
 O         3.237217         1.962250         0.820973
 C         2.752960        -0.188185        -0.558540
 O         3.091774         0.356099        -1.834077
 C         2.813350        -1.606382        -0.124231
 H        -0.315752         0.469489        -1.310982
 H        -0.619746         0.291053         0.499710
 H        -0.170816         1.801756        -0.248192
 H         0.963154        -1.839437         1.411795
 H         2.028841         0.103643         2.820368
 H         3.560125        -0.856558         2.251705
 H         3.560016         2.099586        -0.137581
 H         2.258744         0.206238        -2.396819
 H         2.317601        -2.371158        -0.836660
 H         3.805980        -2.013722         0.169704
