19
Iteration:   378charge 0 multiplicity 1
 C         0.059288         0.582276        -0.441732
 C         1.351160        -0.012419         0.048008
 C         1.894453        -1.430214         0.381434
 C         2.535315        -0.878803         1.687298
 C         2.566188         0.451232         0.981761
 O         2.709377         1.878037         1.346535
 C         2.799933         0.139013        -0.490661
 O         3.488931         1.031354        -1.298253
 C         3.059947        -1.276729        -0.560686
 H         0.182323         0.835881        -1.468292
 H        -0.878143         0.050743        -0.386278
 H         0.015770         1.562284         0.158929
 H         1.171296        -2.354238         0.379531
 H         1.703654        -0.859880         2.507108
 H         3.533058        -1.351331         2.046850
 H         3.417977         2.304711         0.873468
 H         2.947050         1.036137        -2.164681
 H         2.790530        -1.595338        -1.657739
 H         4.071185        -1.748553        -0.207330
