19
Iteration:  1706
 C         0.121147         0.625839        -0.329200
 C         1.420484         0.051534         0.124379
 C         1.874524        -1.286799         0.778396
 C         2.558423        -0.434827         1.856846
 C         2.701173         0.593753         0.835777
 O         2.992239         1.940802         1.009264
 C         2.717073        -0.079808        -0.537893
 O         3.277185         0.700459        -1.576691
 C         2.830064        -1.559986        -0.417779
 H        -0.534066         0.861619         0.501130
 H         0.253615         1.610843        -0.923734
 H        -0.253930        -0.088592        -1.018733
 H         1.277967        -2.109216         1.264192
 H         1.810438        -0.041276         2.699996
 H         3.448281        -0.943644         2.381904
 H         3.564534         2.161296         0.291363
 H         2.768731         0.817724        -2.336932
 H         2.195219        -2.022160        -1.162292
 H         3.812165        -2.106085        -0.244033
