19
Iteration:   783charge 0 multiplicity 1
 C         0.080489         0.577127        -0.442985
 C         1.428945         0.092550         0.061557
 C         1.816410        -1.384279         0.618879
 C         2.533945        -0.745572         1.840323
 C         2.635786         0.517085         0.918462
 O         2.857961         1.887322         1.233745
 C         2.864019         0.070351        -0.520383
 O         3.388731         0.991531        -1.462190
 C         2.920483        -1.432989        -0.511120
 H        -0.364227         1.362739         0.124631
 H         0.022254         0.738915        -1.467261
 H        -0.607344        -0.304209        -0.272344
 H         1.073947        -2.173658         0.664668
 H         1.811064        -0.630723         2.618640
 H         3.431171        -1.253125         2.113428
 H         3.391541         2.192805         0.414572
 H         2.764314         0.896946        -2.323669
 H         2.568050        -1.918036        -1.468457
 H         3.931551        -1.975423        -0.211635
