19
Iteration:  1665
 C         0.133793         0.645313        -0.431107
 C         1.374779         0.048868         0.146984
 C         1.800452        -1.356611         0.836630
 C         2.699758        -0.509502         1.780175
 C         2.607630         0.624340         0.825210
 O         2.979780         1.918654         0.963611
 C         2.663272         0.002201        -0.555668
 O         3.294025         0.763791        -1.490014
 C         2.863084        -1.569969        -0.329505
 H        -0.205200         1.512047         0.174285
 H         0.232117         1.096377        -1.429261
 H        -0.789586        -0.037146        -0.209175
 H         1.049300        -2.077373         1.047917
 H         2.273801        -0.153562         2.785636
 H         3.651774        -0.996101         2.071498
 H         3.902259         2.053231         0.487255
 H         2.819179         0.587880        -2.427543
 H         2.514926        -2.192709        -1.177734
 H         3.779572        -2.007189        -0.070701
