19
Iteration:  2732
 C         0.040600         0.678397        -0.050194
 C         1.399834         0.069436         0.106262
 C         1.674150        -1.170744         0.970837
 C         2.593628        -0.241353         1.840262
 C         2.760222         0.672580         0.666012
 O         3.152498         1.986229         0.718116
 C         2.807518        -0.182382        -0.586557
 O         3.290820         0.441599        -1.787224
 C         2.732136        -1.632617        -0.112472
 H        -0.558556         0.237163        -0.852831
 H        -0.503790         0.718249         0.897350
 H         0.140501         1.699081        -0.195734
 H         1.072930        -1.926556         1.423508
 H         1.990030         0.083038         2.675685
 H         3.421982        -0.741715         2.413172
 H         3.738805         2.283980        -0.050478
 H         2.648372         0.075631        -2.547637
 H         2.530295        -2.257600        -0.907294
 H         3.661676        -2.022404         0.320941
