19
Iteration:  1574
 C         0.061286         0.684389        -0.227325
 C         1.254152        -0.023323         0.014609
 C         1.889849        -1.340698         0.773516
 C         2.563701        -0.450554         1.826038
 C         2.547080         0.569090         0.810880
 O         3.006038         1.906858         1.094021
 C         2.703492        -0.022961        -0.587927
 O         3.426389         0.765249        -1.607463
 C         2.933178        -1.525004        -0.384048
 H         0.184030         1.393051        -1.065456
 H        -0.761063        -0.018800        -0.651067
 H        -0.255740         1.298669         0.550838
 H         1.325076        -2.268064         1.105914
 H         2.036174        -0.109510         2.815878
 H         3.507048        -0.948918         2.191698
 H         3.738191         2.143858         0.374708
 H         2.912558         0.486578        -2.491448
 H         2.538325        -2.030258        -1.195472
 H         3.750071        -2.072121        -0.029401
