19
Iteration:  1966charge 0 multiplicity 1
 C         0.028305         0.665207        -0.348957
 C         1.390266         0.173129         0.062411
 C         1.867436        -1.267347         0.930697
 C         2.735398        -0.397095         1.875927
 C         2.632617         0.598246         0.784508
 O         3.018074         1.925432         0.856394
 C         2.706347        -0.132171        -0.546283
 O         3.358453         0.643754        -1.525855
 C         2.753745        -1.629779        -0.313424
 H        -0.234440         1.685424        -0.048596
 H        -0.187327         0.494581        -1.374600
 H        -0.802005         0.134828         0.200065
 H         0.993697        -1.748012         1.397364
 H         2.195655        -0.342342         2.826213
 H         3.877698        -0.796941         2.097507
 H         3.443151         2.019261         0.021134
 H         2.787307         0.867412        -2.250464
 H         2.185724        -2.067560        -1.120742
 H         3.679544        -2.159470        -0.276358
