19
Iteration:  4430
 C         0.174082         0.854992        -0.245013
 C         1.486874         0.133430         0.180764
 C         1.725374        -1.170108         1.089376
 C         2.775018        -0.224492         1.943556
 C         2.775080         0.667132         0.715874
 O         3.138774         2.059023         0.481836
 C         2.697704        -0.240538        -0.508692
 O         3.136937         0.196236        -1.807186
 C         2.590481        -1.730442        -0.122628
 H        -0.558170         0.107799        -0.472326
 H        -0.289995         1.587514         0.519831
 H         0.254400         1.376149        -1.210938
 H         0.957445        -1.729626         1.627012
 H         2.243272         0.049705         2.880214
 H         3.733777        -0.810013         2.378929
 H         2.827321         2.513384         1.297350
 H         3.409632         1.172223        -1.618070
 H         2.074792        -2.401151        -0.809661
 H         3.570114        -2.129639         0.041091
