19
Iteration:  3024
 C         0.179539         0.766004        -0.215801
 C         1.436328         0.063548         0.098351
 C         1.810419        -1.196740         0.930488
 C         2.603438        -0.462978         1.938144
 C         2.701335         0.697796         0.761991
 O         3.030088         2.103326         0.900630
 C         2.743547        -0.194516        -0.660701
 O         3.206838         0.447376        -1.807533
 C         2.775829        -1.632287        -0.178002
 H         0.232919         1.497047        -1.066715
 H        -0.576283         0.064990        -0.561048
 H        -0.337073         1.196160         0.688306
 H         1.280614        -1.984377         1.278221
 H         1.887380        -0.168128         2.747860
 H         3.534113        -1.001121         2.289479
 H         3.842427         2.441259         0.324912
 H         2.651112         0.240826        -2.486027
 H         2.283657        -2.370987        -0.963573
 H         3.731683        -1.900139         0.253267
