19
Iteration:   435
 C         0.135760         0.583562        -0.304037
 C         1.409038        -0.068914         0.000031
 C         1.912421        -1.504836         0.458575
 C         2.369197        -0.686269         1.712755
 C         2.528205         0.516270         0.830878
 O         2.758205         1.788314         1.376675
 C         2.822491         0.064842        -0.553447
 O         3.501565         1.157222        -1.259384
 C         3.055356        -1.405135        -0.656899
 H         0.417100         1.588164        -0.769795
 H        -0.489808        -0.011205        -1.027987
 H        -0.450880         0.862481         0.563247
 H         1.346241        -2.375230         0.594250
 H         1.530654        -0.520056         2.427226
 H         3.324227        -1.031216         2.267941
 H         2.885436         2.355762         0.638644
 H         3.142128         1.027805        -2.209976
 H         2.601528        -1.771786        -1.627018
 H         4.075430        -1.926292        -0.469443
