19
Iteration:  1405charge 0 multiplicity 1
 C         0.041128         0.681109        -0.343127
 C         1.334018        -0.051833         0.121659
 C         1.844375        -1.348876         0.745794
 C         2.621328        -0.495461         1.865614
 C         2.590742         0.529486         0.836261
 O         2.919108         1.858894         1.023789
 C         2.720186         0.033302        -0.534684
 O         3.456570         0.791235        -1.473596
 C         2.872042        -1.492149        -0.492137
 H        -0.845638         0.078607        -0.245630
 H        -0.131541         1.541128         0.257436
 H         0.102479         1.126380        -1.364887
 H         1.221684        -2.217046         1.082541
 H         1.962223        -0.242098         2.681009
 H         3.741196        -0.696604         2.150344
 H         3.693043         1.982643         0.368668
 H         2.878545         0.704252        -2.352778
 H         2.565504        -1.875525        -1.404632
 H         3.840996        -1.757010        -0.261803
