19
Iteration:  1090
 C         0.116985         0.691908        -0.414006
 C         1.414564         0.064104         0.159885
 C         1.788812        -1.386418         0.646722
 C         2.632135        -0.668170         1.867407
 C         2.655097         0.565209         0.909724
 O         2.799962         1.917390         1.109129
 C         2.839980         0.023727        -0.487394
 O         3.323935         0.887410        -1.485955
 C         2.923456        -1.490085        -0.559646
 H         0.058451         0.904521        -1.511924
 H        -0.620428        -0.129826        -0.435727
 H        -0.146379         1.572472         0.149194
 H         1.029697        -2.208889         0.842195
 H         1.889147        -0.623525         2.781206
 H         3.514254        -1.249758         2.391966
 H         3.652156         2.178568         0.584938
 H         3.151819         0.295033        -2.314029
 H         2.517397        -1.925384        -1.471894
 H         3.841579        -1.964656        -0.350314
