19
Iteration:  2557charge 0 multiplicity 1
 C         0.058379         0.729686        -0.254003
 C         1.401561         0.098752         0.168243
 C         1.821261        -1.198995         1.058900
 C         2.747536        -0.231254         1.899610
 C         2.719314         0.644628         0.686711
 O         3.128019         1.987342         0.682950
 C         2.669894        -0.234189        -0.571954
 O         3.231646         0.482131        -1.662859
 C         2.711367        -1.669704        -0.208896
 H        -0.545815         0.010286        -0.906193
 H        -0.525086         0.793264         0.730118
 H         0.264120         1.716012        -0.711726
 H         1.006837        -1.780996         1.568733
 H         2.038272         0.202549         2.700007
 H         3.550364        -0.785313         2.381982
 H         3.738339         2.070802        -0.000295
 H         2.700814         0.340057        -2.392423
 H         2.032058        -2.356514        -0.826963
 H         3.765672        -2.074163        -0.120637
