19
Iteration:   484
 C         0.076430         0.579485        -0.445968
 C         1.401107        -0.020495         0.023277
 C         1.820931        -1.443661         0.393599
 C         2.605637        -0.738477         1.728662
 C         2.520929         0.515814         0.882267
 O         2.757068         1.842240         1.411995
 C         2.823166         0.119176        -0.534537
 O         3.463957         1.044823        -1.371069
 C         2.980050        -1.381803        -0.525296
 H        -0.176875         1.515617         0.039953
 H         0.124234         0.616168        -1.537380
 H        -0.794073        -0.104928        -0.265818
 H         1.159040        -2.395289         0.621822
 H         1.894351        -0.521481         2.547221
 H         3.494325        -1.142573         2.134842
 H         3.783685         2.018667         1.342843
 H         2.908074         1.210120        -2.111916
 H         2.825968        -1.849868        -1.451709
 H         3.828568        -1.775120        -0.127489
