19
Iteration:  2549charge 0 multiplicity 1
 C         0.046573         0.740040        -0.243209
 C         1.423133         0.126128         0.146456
 C         1.863287        -1.194611         1.061317
 C         2.724788        -0.287867         1.934626
 C         2.670487         0.654174         0.725916
 O         3.108999         1.956357         0.637894
 C         2.656202        -0.208955        -0.597966
 O         3.251501         0.474518        -1.623127
 C         2.713070        -1.679063        -0.206589
 H        -0.524589         0.002443        -0.768144
 H        -0.499405         1.052354         0.634557
 H         0.176642         1.680768        -0.785811
 H         1.149725        -1.853769         1.551877
 H         2.213997         0.170807         2.753401
 H         3.681138        -0.422132         2.330644
 H         3.713403         2.072414        -0.065273
 H         2.829358         0.320362        -2.423899
 H         2.015276        -2.178319        -0.969302
 H         3.635359        -2.226440        -0.250693
