19
Iteration:  1537
 C         0.092863         0.663858        -0.304974
 C         1.456551         0.120238         0.081071
 C         1.837433        -1.277943         0.703665
 C         2.567258        -0.625871         1.907627
 C         2.706649         0.626073         0.880969
 O         2.886408         1.940123         0.933853
 C         2.762045        -0.002335        -0.558521
 O         3.303271         0.847181        -1.493420
 C         2.845695        -1.717591        -0.373947
 H         0.169606         0.842141        -1.387759
 H        -0.609692        -0.083783        -0.122826
 H        -0.264028         1.619430         0.223059
 H         1.147638        -2.030808         0.959285
 H         2.011124        -0.328059         2.749641
 H         3.621942        -1.100225         2.124611
 H         3.779621         2.145078         0.464445
 H         3.021201         0.551874        -2.423170
 H         2.318039        -2.141861        -1.280056
 H         3.869840        -2.182507        -0.281368
