19
Iteration:  1686
 C         0.063233         0.653957        -0.389146
 C         1.396351         0.100109         0.102838
 C         1.770178        -1.298887         0.784933
 C         2.699841        -0.611362         1.909365
 C         2.574753         0.595591         0.835535
 O         3.005761         1.980848         0.922195
 C         2.804029        -0.103215        -0.525681
 O         3.274222         0.806052        -1.585657
 C         2.847951        -1.557387        -0.297967
 H        -0.477177         1.319787         0.308456
 H         0.331322         1.383212        -1.223817
 H        -0.667336        -0.209953        -0.661301
 H         1.058923        -2.053546         1.087321
 H         2.156011        -0.630828         2.985491
 H         3.791645        -0.878034         2.128737
 H         3.799908         1.984349         0.458260
 H         2.665343         0.549233        -2.242530
 H         2.532020        -2.132675        -1.169588
 H         3.777737        -1.943039         0.003185
