19
Iteration:  2038
 C         0.091963         0.773844        -0.217164
 C         1.331067        -0.025444         0.109081
 C         1.845575        -1.293261         0.856160
 C         2.573900        -0.357186         1.853490
 C         2.639971         0.636172         0.739052
 O         3.079537         1.954955         0.938517
 C         2.733784        -0.075834        -0.620233
 O         3.255083         0.605790        -1.681397
 C         2.845507        -1.627781        -0.242394
 H        -0.675379         0.569503         0.605648
 H         0.334363         1.808601        -0.664886
 H        -0.572242         0.336683        -1.009499
 H         1.098528        -2.098256         1.160353
 H         2.197401         0.157009         2.831535
 H         3.602794        -0.660749         2.180175
 H         3.768954         2.098682         0.294732
 H         2.878848         0.114558        -2.393096
 H         2.743894        -2.482770        -0.975738
 H         3.850854        -1.864220         0.213112
