19
Iteration:  1802charge 0 multiplicity 1
 C         0.070490         0.738877        -0.276889
 C         1.456770         0.093735         0.048155
 C         1.884541        -1.362843         0.869680
 C         2.655338        -0.367754         1.948187
 C         2.645725         0.552700         0.789696
 O         2.906709         1.929706         0.879831
 C         2.736701        -0.077165        -0.579565
 O         3.322094         0.748892        -1.527496
 C         2.792910        -1.669289        -0.403235
 H        -0.601845        -0.166970        -0.460216
 H        -0.395647         1.365888         0.566513
 H         0.192057         1.318615        -1.280788
 H         1.239113        -2.305413         1.170193
 H         1.981112        -0.023615         2.652503
 H         3.558812        -0.684510         2.415107
 H         3.835357         2.001576         0.596297
 H         3.065406         0.478075        -2.403243
 H         2.164757        -2.047776        -1.215578
 H         3.715217        -2.370825        -0.333167
