19
Iteration:  3323charge 0 multiplicity 1
 C         0.040605         0.570977        -0.296658
 C         1.365082         0.127305         0.094033
 C         1.741284        -1.218504         0.853340
 C         2.613075        -0.415822         1.797599
 C         2.630571         0.661521         0.836703
 O         3.205365         1.876902         0.959209
 C         2.799756        -0.051955        -0.526969
 O         3.293043         0.656074        -1.722380
 C         2.780834        -1.574553        -0.181248
 H        -0.290275         1.462890         0.212842
 H        -0.009751         0.797832        -1.367729
 H        -0.780765        -0.081197        -0.112535
 H         1.098363        -2.103143         1.229357
 H         2.023898        -0.042548         2.629846
 H         3.666006        -0.806521         2.179670
 H         3.474085         2.155795        -0.013917
 H         2.655857         0.373465        -2.506118
 H         2.134137        -2.108947        -0.953375
 H         3.735695        -2.043556         0.088997
