19
Iteration:  2835charge 0 multiplicity 1
 C         0.129897         0.676362        -0.351002
 C         1.360156         0.033060         0.214572
 C         1.868363        -1.255259         1.020239
 C         2.692427        -0.324258         1.927055
 C         2.751818         0.646933         0.785532
 O         3.184876         2.036391         0.695170
 C         2.681479        -0.130571        -0.545879
 O         3.174018         0.478303        -1.642248
 C         2.663342        -1.620801        -0.239684
 H        -0.870435         0.379633        -0.086978
 H         0.104787         1.708449        -0.066234
 H         0.149167         0.575379        -1.467551
 H         1.162722        -1.846804         1.703576
 H         2.088278         0.091929         2.785628
 H         3.673474        -0.646696         2.199932
 H         3.595947         2.191368        -0.206007
 H         2.441259         0.488872        -2.176845
 H         1.953640        -1.982564        -0.999606
 H         3.522476        -2.189429        -0.168415
