19
Iteration:    88charge 0 multiplicity 1
 C         0.150602         0.549460        -0.527572
 C         1.442495         0.061164        -0.049700
 C         1.814676        -1.410490         0.370528
 C         2.505478        -0.928639         1.655727
 C         2.479200         0.462127         0.986115
 O         2.712524         1.652258         1.590012
 C         2.872458         0.200723        -0.535083
 O         3.426942         1.306199        -1.234395
 C         3.111321        -1.392490        -0.668469
 H        -0.128017         0.124941        -1.509831
 H        -0.573737         0.048616         0.089649
 H         0.127653         1.610469        -0.606083
 H         1.067801        -2.186252         0.329391
 H         2.023894        -0.987363         2.676669
 H         3.575652        -1.318177         1.701185
 H         2.808210         2.313151         0.896633
 H         2.917223         1.534574        -1.953852
 H         2.758398        -1.803165        -1.585495
 H         4.001508        -1.847932        -0.380007
