19
Iteration:  1310
 C         0.115576         0.658612        -0.328787
 C         1.405161         0.064509         0.097432
 C         1.792307        -1.377943         0.653189
 C         2.526740        -0.605765         1.793814
 C         2.555781         0.606385         0.842471
 O         2.965395         1.912280         1.138390
 C         2.736653        -0.020495        -0.546312
 O         3.304628         0.807374        -1.585123
 C         3.000656        -1.484087        -0.369562
 H        -0.482748         0.940288         0.587524
 H         0.310645         1.553341        -1.005877
 H        -0.421363         0.021212        -0.981633
 H         1.207995        -2.233998         0.889620
 H         2.060305        -0.466886         2.758221
 H         3.498213        -0.969370         1.884282
 H         3.786848         2.001026         0.715202
 H         2.854955         0.805628        -2.357601
 H         2.642263        -2.219285        -1.165902
 H         3.948930        -1.719700         0.218450
