19
Iteration:  3393
 C         0.145263         0.765649        -0.443069
 C         1.491751         0.074213         0.163069
 C         1.806712        -1.332395         0.875262
 C         2.676839        -0.494635         1.963157
 C         2.733489         0.606843         0.889386
 O         2.970063         2.018177         0.883616
 C         2.716864        -0.105076        -0.582737
 O         3.241034         0.637683        -1.649071
 C         2.759356        -1.656030        -0.287469
 H         0.309003         1.842793        -0.638541
 H        -0.212489         0.274773        -1.333191
 H        -0.695727         0.868139         0.227618
 H         1.067913        -1.911459         1.311751
 H         2.242805        -0.348076         3.015454
 H         3.653520        -0.971812         2.181577
 H         3.224942         2.293413        -0.036433
 H         2.450938         0.780189        -2.218634
 H         2.251744        -2.052159        -1.131561
 H         3.696527        -2.257681         0.035714
