19
Iteration:  1340charge 0 multiplicity 1
 C         0.053835         0.651622        -0.320329
 C         1.399464         0.050602         0.037180
 C         1.918215        -1.327113         0.736139
 C         2.506750        -0.524122         1.849445
 C         2.661811         0.575833         0.858670
 O         2.905895         1.835242         1.104292
 C         2.804434        -0.021190        -0.519827
 O         3.360005         0.808676        -1.543893
 C         2.871555        -1.472736        -0.493879
 H        -0.642104         0.300452         0.446606
 H         0.108186         1.724660        -0.235967
 H        -0.273220         0.412006        -1.372854
 H         1.265339        -2.154602         1.188689
 H         1.717041        -0.339050         2.556083
 H         3.431961        -0.824969         2.417889
 H         3.679100         2.158836         0.492491
 H         3.082037         0.529833        -2.545256
 H         2.239539        -1.975823        -1.243660
 H         3.872296        -2.009352        -0.336353
