19
Iteration:  2443
 C         0.110092         0.729411        -0.228789
 C         1.454112         0.149855         0.153908
 C         1.798448        -1.186960         0.941905
 C         2.606795        -0.281106         1.990272
 C         2.695447         0.697889         0.813133
 O         3.152039         1.969675         0.801437
 C         2.690085        -0.194160        -0.631338
 O         3.143163         0.401967        -1.810572
 C         2.851901        -1.630833        -0.200528
 H        -0.779599         0.373643         0.362038
 H        -0.057294         1.827342        -0.171308
 H        -0.187479         0.300012        -1.236840
 H         1.076559        -1.833709         1.356954
 H         1.973757         0.099256         2.755580
 H         3.462046        -0.911849         2.302516
 H         3.785612         2.116857        -0.010237
 H         2.423933         0.286722        -2.459050
 H         2.562895        -2.299836        -0.987913
 H         3.864081        -1.999451         0.260397
