19
Iteration:  4501charge 0 multiplicity 1
 C         0.044267         0.660545        -0.169647
 C         1.486170         0.192159         0.144044
 C         1.688070        -1.054383         1.066794
 C         2.610855        -0.211063         1.977541
 C         2.764015         0.637519         0.728479
 O         3.444027         1.940721         0.444101
 C         2.725411        -0.203332        -0.543388
 O         3.064458         0.310457        -1.778600
 C         2.621193        -1.697223        -0.084061
 H        -0.096955         0.474558        -1.289106
 H        -0.589342        -0.040823         0.308627
 H        -0.298182         1.694910         0.127180
 H         0.822366        -1.541727         1.574128
 H         2.046653         0.388031         2.717406
 H         3.579589        -0.494316         2.414756
 H         2.774789         2.648406         0.386383
 H         3.985912         0.823711        -1.685579
 H         2.146566        -2.326647        -0.837912
 H         3.548003        -2.233087         0.270056
