19
Iteration:  2451
 C         0.065312         0.719230        -0.207295
 C         1.436490         0.146142         0.121948
 C         1.830276        -1.201006         0.976108
 C         2.585906        -0.308091         1.900705
 C         2.780211         0.671455         0.780319
 O         3.144355         1.976799         0.804525
 C         2.652491        -0.140458        -0.607051
 O         3.158450         0.358326        -1.767752
 C         2.862072        -1.587965        -0.211058
 H        -0.684919         0.232362         0.352051
 H         0.079457         1.755316        -0.066969
 H        -0.196423         0.504640        -1.257291
 H         0.978180        -1.803408         1.380638
 H         1.790614         0.105178         2.525676
 H         3.512634        -0.597712         2.687609
 H         3.802468         2.143093         0.031883
 H         2.465485         0.263998        -2.374412
 H         2.464719        -2.231799        -1.008086
 H         3.721580        -2.014286         0.183838
