19
Iteration:  2748charge 0 multiplicity 1
 C         0.037757         0.772958        -0.097560
 C         1.411808         0.063570         0.063982
 C         1.824810        -1.193166         0.953167
 C         2.588644        -0.280888         1.977262
 C         2.700148         0.654929         0.700079
 O         3.143353         1.974087         0.748715
 C         2.675635        -0.134679        -0.600228
 O         3.269510         0.381113        -1.768158
 C         2.821091        -1.599146        -0.181167
 H        -0.639155         0.058032        -0.589336
 H        -0.289633         0.935705         0.945350
 H         0.098807         1.722297        -0.772241
 H         0.930144        -1.846515         1.325240
 H         2.003957         0.398085         2.642896
 H         3.496978        -0.632977         2.437913
 H         3.654967         2.034924        -0.030864
 H         2.858129        -0.160800        -2.540427
 H         2.077738        -2.237704        -0.803830
 H         3.816406        -2.044899        -0.004547
