19
Iteration:  2092
 C         0.119826         0.693169        -0.291338
 C         1.389734        -0.043385         0.222444
 C         1.827265        -1.291154         0.931985
 C         2.721442        -0.358614         1.876954
 C         2.650808         0.637962         0.760693
 O         2.990061         1.992529         0.805056
 C         2.782719        -0.111300        -0.556948
 O         3.334723         0.604454        -1.581554
 C         2.699774        -1.638716        -0.324315
 H        -0.888303         0.189687        -0.161607
 H        -0.007538         1.783965         0.182313
 H         0.191277         0.895887        -1.347072
 H         1.007316        -1.942505         1.386016
 H         1.917264         0.049764         2.626329
 H         3.832018        -0.638931         2.261627
 H         3.404563         2.084578        -0.105904
 H         2.679495         0.832863        -2.229104
 H         2.141584        -1.829256        -1.218121
 H         3.559730        -2.323618        -0.304430
