19
Iteration:  1045charge 0 multiplicity 1
 C         0.007847         0.650809        -0.382223
 C         1.354657        -0.008147         0.043150
 C         1.867421        -1.358490         0.644775
 C         2.490343        -0.538594         1.823480
 C         2.658572         0.534354         0.806378
 O         2.955361         1.853104         1.273162
 C         2.779246        -0.018925        -0.608925
 O         3.362367         0.849540        -1.478423
 C         2.983245        -1.522677        -0.477544
 H         0.023055         0.737847        -1.458144
 H        -0.838383         0.042791        -0.271236
 H        -0.033376         1.651422         0.054842
 H         1.235023        -2.249994         0.939558
 H         1.888046        -0.126154         2.649027
 H         3.499194        -0.790355         2.359084
 H         3.468033         2.353148         0.491217
 H         2.569059         1.359192        -1.954187
 H         2.818888        -1.984662        -1.430867
 H         3.918506        -1.784971        -0.176733
