19
Iteration:  3857
 C         0.024130         0.653385        -0.300519
 C         1.369552         0.082446         0.136935
 C         1.747441        -1.182259         0.890739
 C         2.630512        -0.330286         1.974014
 C         2.683956         0.647002         0.859320
 O         3.231236         1.940714         0.742878
 C         2.774730        -0.137118        -0.566309
 O         3.247357         0.604163        -1.685374
 C         2.702673        -1.626810        -0.227762
 H        -0.297234         0.760353        -1.357274
 H        -0.715092         0.060919         0.210844
 H         0.020371         1.677351         0.260332
 H         1.076170        -1.955640         1.227079
 H         2.090949         0.068896         2.829829
 H         3.438923        -0.918582         2.347052
 H         3.668640         1.985396        -0.137594
 H         3.234302        -0.041893        -2.316773
 H         2.255916        -2.123688        -1.102115
 H         3.704174        -2.186014         0.012636
