19
Iteration:  4527
 C         0.066804         0.658596        -0.224677
 C         1.444620         0.145976         0.105559
 C         1.763901        -1.036813         1.128694
 C         2.690305        -0.148570         1.896544
 C         2.750022         0.653547         0.646025
 O         3.402085         1.943694         0.615009
 C         2.692520        -0.237988        -0.593433
 O         3.078441         0.302824        -1.804428
 C         2.544014        -1.712722        -0.014617
 H         0.039859         0.953814        -1.323551
 H        -0.769839        -0.119361        -0.133105
 H        -0.267485         1.470877         0.491108
 H         1.046136        -1.542508         1.748580
 H         2.223443         0.427233         2.713960
 H         3.642473        -0.480447         2.197289
 H         2.856522         2.664329         0.225187
 H         3.996151         0.754826        -1.695375
 H         1.895648        -2.362881        -0.622830
 H         3.554846        -2.272729         0.175034
