19
Iteration:  4833charge 0 multiplicity 1
 C         0.109264         0.853954        -0.142382
 C         1.373521         0.115496         0.168704
 C         1.802920        -1.017961         1.225983
 C         2.848534        -0.006903         1.912312
 C         2.783802         0.690928         0.571292
 O         3.308400         2.022509         0.437162
 C         2.618195        -0.319774        -0.557757
 O         3.065917         0.020897        -1.860119
 C         2.533527        -1.741304         0.052775
 H         0.147614         2.003077         0.025975
 H        -0.210811         0.691577        -1.144534
 H        -0.818951         0.572106         0.388933
 H         1.123646        -1.599959         1.901851
 H         2.564851         0.584514         2.858842
 H         3.844924        -0.499943         2.029205
 H         2.707112         2.644257        -0.056602
 H         3.957136        -0.178607        -1.870340
 H         1.784537        -2.232892        -0.494105
 H         3.402525        -2.274642         0.426196
