19
Iteration:  4007charge 0 multiplicity 1
 C         0.166762         0.788449        -0.354638
 C         1.405849         0.154744         0.207716
 C         1.811928        -1.248441         0.997941
 C         2.727832        -0.383103         1.904092
 C         2.691752         0.710621         0.779868
 O         3.078419         1.979165         0.838696
 C         2.716244        -0.079237        -0.540538
 O         3.183040         0.354471        -1.755537
 C         2.699562        -1.631928        -0.218242
 H        -0.160025         1.536253         0.365511
 H         0.258472         1.242730        -1.325616
 H        -0.564337        -0.003941        -0.394855
 H         0.977807        -1.888725         1.364902
 H         2.072842        -0.075247         2.753760
 H         3.720992        -0.879903         2.213657
 H         3.594900         2.383371         0.068136
 H         2.616468         0.201725        -2.662233
 H         2.304911        -2.216404        -1.018494
 H         3.682613        -2.059440         0.085459
