19
Iteration:   753
 C         0.128205         0.686313        -0.439549
 C         1.362171        -0.058151        -0.000107
 C         1.904559        -1.402735         0.595094
 C         2.530809        -0.632715         1.740089
 C         2.496882         0.534280         0.878328
 O         2.906494         1.807645         1.293247
 C         2.778042         0.028524        -0.548102
 O         3.291404         0.960909        -1.451506
 C         3.018289        -1.425612        -0.446121
 H         0.210173         1.759636        -0.036332
 H         0.015669         0.587815        -1.580966
 H        -0.710191         0.303570         0.178401
 H         1.271034        -2.208092         0.550963
 H         1.928570        -0.656726         2.683564
 H         3.458603        -0.974481         2.351702
 H         3.652713         2.129521         0.678086
 H         2.764634         1.056325        -2.172346
 H         2.986300        -2.037062        -1.365347
 H         3.947642        -1.698041        -0.003572
