19
Iteration:  3410charge 0 multiplicity 1
 C         0.211920         0.724452        -0.336913
 C         1.415098         0.088047         0.131416
 C         1.775398        -1.181643         0.870531
 C         2.689701        -0.455904         1.809196
 C         2.627019         0.605331         0.741986
 O         2.953989         1.952740         0.956770
 C         2.786885        -0.120056        -0.521006
 O         3.251291         0.557026        -1.600352
 C         2.791767        -1.595239        -0.309866
 H         0.454915         1.685545        -0.826888
 H        -0.364245         0.017911        -1.003333
 H        -0.441205         0.970350         0.549036
 H         1.116967        -2.092840         1.123690
 H         2.131378        -0.086739         2.643488
 H         3.559064        -0.915642         2.352241
 H         3.490077         2.182147         0.202556
 H         2.519880         0.864566        -2.126603
 H         2.241370        -2.288500        -1.022538
 H         3.760422        -1.959414        -0.121514
