19
Iteration:   586charge 0 multiplicity 1
 C         0.125020         0.674623        -0.394713
 C         1.338399        -0.051821        -0.039851
 C         1.939793        -1.478014         0.573363
 C         2.463358        -0.703634         1.811012
 C         2.490204         0.557571         0.838112
 O         2.852527         1.755733         1.347228
 C         2.838294         0.056203        -0.565445
 O         3.416345         1.030366        -1.370074
 C         3.026109        -1.394996        -0.536851
 H        -0.804074         0.147373        -0.207695
 H         0.024786         1.623061         0.097609
 H         0.244266         0.899923        -1.527704
 H         1.426701        -2.486806         0.461388
 H         1.745982        -0.423895         2.556772
 H         3.446133        -0.917016         2.207470
 H         2.987887         2.445687         0.715271
 H         2.793442         1.118646        -2.233239
 H         2.576608        -1.766249        -1.442785
 H         3.930360        -1.822976        -0.372239
