19
Iteration:  3520
 C         0.115626         0.695374        -0.253322
 C         1.348495         0.013752         0.114565
 C         1.777379        -1.244422         0.867718
 C         2.672736        -0.413328         1.882829
 C         2.635829         0.634982         0.752087
 O         3.012746         1.937906         0.866497
 C         2.682338        -0.092757        -0.563251
 O         3.434235         0.558368        -1.525747
 C         2.761908        -1.556443        -0.317235
 H         0.396611         1.525214        -0.979339
 H        -0.743953         0.217909        -0.844809
 H        -0.396791         1.135239         0.653505
 H         1.118279        -2.098052         1.192002
 H         2.109406        -0.205102         2.760266
 H         3.700712        -0.686050         2.017536
 H         3.141207         2.162467        -0.137930
 H         2.850991         0.899217        -2.300707
 H         2.351378        -1.983081        -1.293233
 H         3.720422        -2.044559        -0.216764
