19
Iteration:  4333
 C         0.031933         0.688976        -0.230147
 C         1.454717         0.185940         0.197415
 C         1.840238        -1.147684         1.049254
 C         2.629677        -0.269571         1.977724
 C         2.779097         0.724924         0.778250
 O         3.266692         2.016155         0.615473
 C         2.645500        -0.225093        -0.528262
 O         3.108647         0.347896        -1.758320
 C         2.642723        -1.634047        -0.237344
 H        -0.551907         1.330641         0.371563
 H         0.317724         1.312084        -1.179788
 H        -0.641372        -0.088812        -0.481312
 H         1.144583        -1.848154         1.552911
 H         1.964332         0.271729         2.595828
 H         3.587022        -0.588768         2.457182
 H         3.892461         1.754359        -0.066093
 H         3.814944        -0.113705        -2.083888
 H         1.935273        -2.261478        -0.921395
 H         3.569999        -2.157297         0.043741
