19
Iteration:  4619
 C         0.236818         0.873601        -0.198038
 C         1.437772         0.079371         0.190315
 C         1.772121        -1.143571         1.193033
 C         2.692892        -0.078213         1.981377
 C         2.748173         0.628738         0.616379
 O         3.230047         2.004150         0.539746
 C         2.722797        -0.250503        -0.556338
 O         2.998309         0.219019        -1.855815
 C         2.620810        -1.720270        -0.058342
 H         0.203757         1.674884         0.495337
 H         0.307100         1.088257        -1.346130
 H        -0.625451         0.207500        -0.084601
 H         1.065133        -1.894126         1.609830
 H         2.188354         0.532294         2.694283
 H         3.738808        -0.262642         2.376477
 H         2.571329         2.409927        -0.017030
 H         3.991900        -0.016500        -2.130253
 H         1.930918        -2.387178        -0.692588
 H         3.521747        -2.288527         0.208670
