19
Iteration:  3679charge 0 multiplicity 1
 C         0.069260         0.741861        -0.163963
 C         1.367754         0.035224         0.199032
 C         1.686758        -1.290520         0.870782
 C         2.626181        -0.380584         1.882462
 C         2.678553         0.656068         0.692571
 O         3.080190         1.943281         0.708757
 C         2.776710        -0.113661        -0.582316
 O         3.370609         0.638860        -1.513598
 C         2.808182        -1.633597        -0.296834
 H        -0.464209         0.966958         0.759325
 H         0.364378         1.674259        -0.681916
 H        -0.563361         0.060670        -0.822614
 H         0.870889        -2.062583         1.170109
 H         1.771292        -0.062537         2.537003
 H         3.479383        -0.925159         2.274143
 H         3.425384         2.132148        -0.128801
 H         3.056563         0.350701        -2.321709
 H         2.259745        -2.126312        -1.045135
 H         3.760151        -2.181415         0.010944
