19
Iteration:  1059
 C         0.165161         0.611906        -0.392244
 C         1.413784         0.016629        -0.015004
 C         1.783386        -1.410524         0.667713
 C         2.596416        -0.555643         1.828117
 C         2.598858         0.613904         0.847252
 O         2.908608         1.865121         1.232158
 C         2.789034         0.002903        -0.561060
 O         3.335547         0.917339        -1.508413
 C         2.945872        -1.538258        -0.463256
 H         0.020951         0.979801        -1.473483
 H        -0.643713        -0.067890         0.026081
 H        -0.136149         1.450458         0.189748
 H         1.032360        -2.199525         0.919853
 H         1.668541        -0.459851         2.513931
 H         3.442361        -1.059145         2.219694
 H         3.547980         2.187465         0.623126
 H         2.656827         1.125537        -2.170988
 H         2.462578        -2.131224        -1.283602
 H         3.862671        -1.915133         0.021213
