19
Iteration:   333charge 0 multiplicity 1
 C         0.165093         0.510059        -0.534284
 C         1.454078         0.009435        -0.031256
 C         1.852424        -1.402394         0.429912
 C         2.501104        -0.728520         1.739644
 C         2.574764         0.514165         0.909504
 O         2.754206         1.759530         1.548536
 C         2.842679         0.137320        -0.563039
 O         3.396179         1.198015        -1.293237
 C         2.992272        -1.515380        -0.637405
 H        -0.320116        -0.168647        -1.187479
 H        -0.537520         0.474500         0.289188
 H         0.255940         1.641960        -0.842744
 H         1.079635        -2.312493         0.430060
 H         1.664312        -0.534443         2.552101
 H         3.488025        -1.280075         2.042027
 H         3.221239         2.389086         1.004647
 H         2.898388         1.499481        -2.124314
 H         2.597339        -1.963661        -1.645419
 H         3.984323        -2.037746        -0.238926
