19
Iteration:  4133
 C         0.120973         0.755573        -0.223971
 C         1.394313         0.106349         0.095021
 C         1.777483        -1.188712         1.012975
 C         2.638687        -0.267560         1.948388
 C         2.665648         0.600025         0.690964
 O         3.160409         1.965807         0.714864
 C         2.807596        -0.186225        -0.542982
 O         3.211386         0.515379        -1.739427
 C         2.665547        -1.687398        -0.134749
 H        -0.581994         0.070958        -0.783347
 H        -0.323115         1.074203         0.800800
 H         0.094345         1.739731        -0.793961
 H         0.968798        -1.790978         1.383021
 H         2.245258         0.201473         2.876964
 H         3.628177        -0.799458         2.103455
 H         3.394743         2.259168        -0.224068
 H         3.610265        -0.183743        -2.426205
 H         1.985800        -2.211231        -0.925043
 H         3.514590        -2.328187         0.320996
