19
Iteration:  4013charge 0 multiplicity 1
 C         0.215493         0.764056        -0.349837
 C         1.429090         0.112173         0.190469
 C         1.792352        -1.210070         1.019149
 C         2.735624        -0.382454         1.931954
 C         2.631130         0.715047         0.787725
 O         3.108920         1.992229         0.865879
 C         2.725596        -0.084101        -0.579659
 O         3.214390         0.346144        -1.780928
 C         2.673745        -1.590137        -0.236748
 H        -0.349591         1.292475         0.473539
 H         0.143108         1.308927        -1.356438
 H        -0.579739        -0.029267        -0.418853
 H         1.041611        -1.890370         1.407826
 H         2.165549         0.004825         2.773746
 H         3.684081        -0.761698         2.229834
 H         3.392584         2.298407        -0.006760
 H         2.519354         0.303847        -2.463429
 H         2.152716        -2.275663        -1.028136
 H         3.554544        -2.246027        -0.032881
