19
Iteration:   118
 C         0.062923         0.638676        -0.509461
 C         1.360373        -0.016929        -0.050982
 C         1.955228        -1.473745         0.360237
 C         2.524492        -0.857009         1.642254
 C         2.516544         0.485354         0.943092
 O         2.680229         1.674849         1.531729
 C         2.806611         0.187615        -0.485642
 O         3.465076         1.192345        -1.172356
 C         3.116986        -1.346967        -0.704289
 H         0.077587         1.018769        -1.635079
 H        -0.751622        -0.130488        -0.432338
 H        -0.288645         1.491633         0.124299
 H         1.311373        -2.486211         0.415496
 H         1.880522        -0.873760         2.595198
 H         3.481044        -1.186167         2.060780
 H         3.316519         2.092582         0.992292
 H         2.976260         1.628250        -1.938908
 H         2.667610        -1.689264        -1.690587
 H         4.209352        -1.823195        -0.459519
