19
Iteration:   885
 C         0.061273         0.672448        -0.362560
 C         1.421583        -0.071844        -0.071698
 C         1.879201        -1.379312         0.674043
 C         2.418262        -0.573041         1.864857
 C         2.689453         0.557008         0.845742
 O         2.875307         1.856122         1.236881
 C         2.879121         0.007388        -0.544502
 O         3.322767         0.955183        -1.452897
 C         3.035306        -1.555465        -0.562817
 H        -0.902247         0.219558         0.061453
 H        -0.054668         1.670068         0.195812
 H        -0.128684         0.828649        -1.410850
 H         1.285380        -2.293820         0.805344
 H         1.526352        -0.359627         2.620218
 H         3.199953        -1.067994         2.592748
 H         3.388279         2.289326         0.578481
 H         2.672555         1.033299        -2.178026
 H         2.422567        -1.996636        -1.459508
 H         4.143835        -1.872394        -0.360582
