19
Iteration:   899
 C         0.189158         0.652511        -0.316525
 C         1.433717        -0.020997        -0.021426
 C         1.863987        -1.449996         0.604174
 C         2.460331        -0.528731         1.824062
 C         2.544648         0.503751         0.828583
 O         2.853957         1.819998         1.272304
 C         2.827937        -0.001741        -0.597577
 O         3.349257         0.948867        -1.494678
 C         2.975292        -1.461701        -0.442788
 H        -0.556794        -0.098911        -0.106712
 H         0.194778         1.613627         0.268982
 H         0.096532         0.955570        -1.375075
 H         1.232790        -2.339948         0.773969
 H         1.677084        -0.124970         2.494240
 H         3.474348        -0.801072         2.311161
 H         3.313525         2.317396         0.481642
 H         2.609220         1.112966        -2.188293
 H         2.652694        -1.915458        -1.374196
 H         3.839622        -2.023074        -0.162009
