19
Iteration:  4964charge 0 multiplicity 1
 C         0.090294         0.854398        -0.213134
 C         1.417323         0.226642         0.180646
 C         1.763807        -0.937174         1.288809
 C         2.893993        -0.028418         1.928088
 C         2.826312         0.776696         0.585485
 O         3.261872         2.013895         0.356235
 C         2.630626        -0.376021        -0.466442
 O         3.038828        -0.065217        -1.863926
 C         2.592241        -1.730971         0.131141
 H        -0.294424         0.388108        -1.185793
 H        -0.570478         0.695608         0.589051
 H         0.172822         1.921357        -0.455380
 H         1.103985        -1.470900         1.970553
 H         2.791468         0.435016         2.904472
 H         3.672798        -0.699444         2.041118
 H         3.400785         1.974708        -0.583432
 H         2.107042         0.160366        -2.303384
 H         1.968238        -2.426027        -0.375660
 H         3.593063        -2.276547         0.381996
