19
Iteration:  3885
 C        -0.011440         0.685124        -0.209519
 C         1.338477         0.119608         0.117679
 C         1.810414        -1.215746         0.924260
 C         2.711726        -0.262313         1.796828
 C         2.704554         0.655004         0.693150
 O         3.156247         1.972029         0.880259
 C         2.629507        -0.165207        -0.666957
 O         3.428973         0.427011        -1.592204
 C         2.664692        -1.624926        -0.212480
 H        -0.202409         1.045943        -1.212402
 H        -0.795879        -0.056879         0.047414
 H        -0.196358         1.452252         0.495065
 H         1.114481        -1.982681         1.364766
 H         2.066259         0.252424         2.549824
 H         3.608090        -0.775312         2.282708
 H         3.450714         2.411443         0.093364
 H         2.933872         0.369953        -2.352217
 H         2.175661        -2.098820        -1.054865
 H         3.643805        -1.991379        -0.044917
