19
Iteration:  4167
 C         0.145988         0.870060        -0.192447
 C         1.372046         0.135022         0.182076
 C         1.819344        -1.171856         1.019759
 C         2.729915        -0.296058         1.968988
 C         2.677090         0.651820         0.679305
 O         3.021252         2.063735         0.782326
 C         2.648592        -0.193821        -0.567875
 O         3.292429         0.281851        -1.782860
 C         2.695493        -1.661075        -0.233764
 H        -0.080746         0.535346        -1.238318
 H        -0.824816         0.443057         0.270151
 H         0.202393         1.977433        -0.178670
 H         1.117234        -1.967628         1.164703
 H         2.324277         0.182182         2.880637
 H         3.698621        -0.744954         2.277963
 H         3.773176         2.216364         0.154964
 H         3.090442        -0.620111        -2.303713
 H         2.186223        -2.183693        -1.150787
 H         3.755402        -2.061179        -0.049619
