19
Iteration:   155
 C         0.129450         0.606785        -0.361740
 C         1.465348         0.006736        -0.036540
 C         1.912023        -1.447742         0.325988
 C         2.406415        -0.906442         1.708877
 C         2.531277         0.392021         0.988723
 O         2.632823         1.734497         1.383992
 C         2.909678         0.173098        -0.491197
 O         3.412001         1.279406        -1.225650
 C         3.097261        -1.335253        -0.667382
 H         0.140633         1.558897        -0.845916
 H        -0.224554        -0.106410        -1.104835
 H        -0.524796         0.673830         0.504785
 H         1.265427        -2.180033         0.257175
 H         1.575261        -0.846504         2.374645
 H         3.319324        -1.498639         2.067758
 H         3.444892         2.154811         1.076617
 H         3.488671         0.860618        -2.182740
 H         2.722914        -1.511829        -1.649501
 H         3.976742        -1.868570        -0.510761
