19
Iteration:  4631charge 0 multiplicity 1
 C         0.141849         0.848542        -0.156350
 C         1.394258         0.102086         0.222857
 C         1.813583        -1.091516         1.133452
 C         2.712931        -0.120794         1.919684
 C         2.727974         0.730311         0.725458
 O         3.258959         1.935193         0.521095
 C         2.723079        -0.284416        -0.576047
 O         3.021195         0.160282        -1.884658
 C         2.686710        -1.659180        -0.036172
 H        -0.211823         1.687958         0.411284
 H         0.459194         1.432927        -1.088730
 H        -0.808721         0.372102        -0.437074
 H         1.062063        -1.677186         1.669364
 H         2.042202         0.340005         2.654482
 H         3.590253        -0.644623         2.438518
 H         2.675583         2.523739        -0.055741
 H         3.918168        -0.093622        -2.039720
 H         2.094474        -2.340979        -0.705548
 H         3.619390        -2.128671         0.252522
