19
Iteration:  3368
 C         0.242987         0.708903        -0.433992
 C         1.365188         0.023662         0.240235
 C         1.876792        -1.278611         0.907373
 C         2.655628        -0.416096         1.853695
 C         2.620887         0.641579         0.759539
 O         3.057527         1.879984         0.874857
 C         2.718542        -0.092541        -0.498467
 O         3.182780         0.666855        -1.564912
 C         2.752299        -1.566131        -0.307411
 H         0.232162         1.779100        -0.244686
 H         0.214095         0.543387        -1.512272
 H        -0.713381         0.457126        -0.105610
 H         1.157860        -1.936417         1.419671
 H         2.134185        -0.171570         2.796710
 H         3.698901        -0.865866         2.108861
 H         3.549853         2.317242         0.087975
 H         2.687687         0.306468        -2.407341
 H         2.117470        -1.891368        -1.162620
 H         3.613878        -2.222208        -0.088978
