19
Iteration:  4247
 C         0.102037         0.781030        -0.307298
 C         1.370357         0.081405         0.236410
 C         1.827890        -1.184579         1.063038
 C         2.641117        -0.254759         1.964921
 C         2.704431         0.646927         0.781037
 O         3.161275         1.988690         0.617994
 C         2.737683        -0.165119        -0.512683
 O         3.224091         0.321610        -1.806352
 C         2.726307        -1.621519        -0.163871
 H         0.282633         1.820556        -0.541451
 H        -0.515118         0.171145        -1.037017
 H        -0.506173         0.799773         0.607295
 H         1.054572        -1.826623         1.513201
 H         2.006492         0.213091         2.694501
 H         3.584315        -0.524965         2.335739
 H         3.883408         1.840118        -0.053255
 H         2.413808         0.848807        -2.137535
 H         2.069213        -2.097816        -0.980388
 H         3.576722        -2.302954        -0.041275
