19
Iteration:  4037
 C         0.061363         0.634127        -0.320566
 C         1.443917         0.129137         0.168874
 C         1.801631        -1.152804         0.996283
 C         2.715511        -0.255197         1.900918
 C         2.780762         0.720864         0.708871
 O         3.162495         1.983269         0.891924
 C         2.766548        -0.149278        -0.576102
 O         3.243603         0.416424        -1.737562
 C         2.580259        -1.745267        -0.224402
 H        -0.622729         0.790039         0.515923
 H         0.230643         1.669129        -0.855707
 H        -0.524956         0.076788        -1.008068
 H         0.944975        -1.704296         1.414568
 H         2.097296         0.111316         2.715067
 H         3.645366        -0.709229         2.279888
 H         3.260383         2.554588         0.135958
 H         2.611660         0.699021        -2.356157
 H         1.979837        -2.342896        -1.003449
 H         3.419657        -2.409176        -0.060418
