19
Iteration:  4241
 C         0.109950         0.774509        -0.257397
 C         1.424404         0.101905         0.175728
 C         1.798098        -1.228852         1.048728
 C         2.649508        -0.251298         1.994578
 C         2.701288         0.617242         0.778503
 O         3.135139         2.000176         0.607713
 C         2.785975        -0.165128        -0.536660
 O         3.194802         0.336256        -1.802249
 C         2.710068        -1.609277        -0.140298
 H         0.248610         1.806308        -0.728046
 H        -0.390536         0.136170        -0.937293
 H        -0.603964         1.043980         0.572792
 H         1.104134        -1.946769         1.511057
 H         1.891090         0.353891         2.598203
 H         3.663725        -0.626231         2.409291
 H         3.965147         1.815020         0.080718
 H         2.464818         0.895706        -2.273671
 H         2.026777        -2.083824        -0.785732
 H         3.532031        -2.340179        -0.008836
