19
Iteration:  1198charge 0 multiplicity 1
 C         0.057520         0.613378        -0.332459
 C         1.382162         0.010727         0.026669
 C         1.799888        -1.373952         0.755595
 C         2.513664        -0.519429         1.808835
 C         2.576010         0.585418         0.816071
 O         2.994915         1.852321         1.140962
 C         2.771676         0.002225        -0.604416
 O         3.351974         0.883884        -1.432294
 C         3.000905        -1.512242        -0.510365
 H         0.072832         1.668149        -0.050724
 H        -0.272975         0.478272        -1.358061
 H        -0.745371         0.103240         0.234505
 H         0.999824        -2.176644         0.952450
 H         1.883615        -0.164316         2.572166
 H         3.414206        -0.962864         2.191720
 H         3.824655         2.095501         0.598887
 H         2.837850         0.856757        -2.309329
 H         2.536586        -2.069607        -1.359507
 H         4.004695        -1.960786        -0.224072
