19
Iteration:   364charge 0 multiplicity 1
 C         0.094472         0.604931        -0.497861
 C         1.401371         0.009022        -0.012509
 C         1.915849        -1.494369         0.451563
 C         2.496018        -0.821407         1.818483
 C         2.512255         0.540244         0.958601
 O         2.713652         1.777221         1.412727
 C         2.844189         0.183801        -0.476943
 O         3.476090         1.076699        -1.340641
 C         3.018379        -1.354659        -0.670386
 H        -0.105945         0.588443        -1.570384
 H        -0.636996        -0.040849        -0.018983
 H        -0.139727         1.661209        -0.127824
 H         1.363993        -2.448534         0.495407
 H         1.806620        -0.705319         2.699199
 H         3.458038        -1.260494         2.170813
 H         3.493998         2.098935         0.884800
 H         2.957425         1.230059        -2.157528
 H         2.575007        -1.687226        -1.673053
 H         4.124624        -1.785963        -0.587915
