19
Iteration:  4363
 C         0.122161         0.777120        -0.216287
 C         1.408545         0.140272         0.109757
 C         1.725690        -1.119021         1.094124
 C         2.716373        -0.224515         1.785216
 C         2.683980         0.696055         0.706237
 O         3.235284         1.927394         0.721860
 C         2.662258        -0.253618        -0.567424
 O         3.076916         0.327225        -1.814561
 C         2.701705        -1.652819        -0.031509
 H        -0.570478         0.757511         0.660307
 H         0.256497         1.827011        -0.585447
 H        -0.404255         0.337795        -1.101625
 H         1.047521        -1.820699         1.569007
 H         2.420190         0.281837         2.774143
 H         3.772009        -0.651018         2.164519
 H         3.472471         2.129745        -0.202045
 H         4.038027         0.427535        -2.027774
 H         2.437887        -2.425147        -0.716115
 H         3.603227        -1.993915         0.468484
