19
Iteration:  2618charge 0 multiplicity 1
 C         0.151267         0.716542        -0.332919
 C         1.349529         0.071030         0.212466
 C         1.822538        -1.249325         1.059836
 C         2.731776        -0.220474         1.876116
 C         2.711938         0.692273         0.710681
 O         3.250385         1.991508         0.833336
 C         2.640534        -0.158799        -0.560373
 O         3.116496         0.355771        -1.796390
 C         2.749124        -1.589422        -0.163126
 H         0.004974         0.489414        -1.395735
 H        -0.830606         0.402919         0.004622
 H        -0.017849         1.764416         0.007834
 H         0.988664        -1.892744         1.407926
 H         2.119453         0.158109         2.687260
 H         3.489114        -0.535083         2.670061
 H         3.407500         2.309379        -0.063291
 H         2.453413         0.203730        -2.470391
 H         2.225429        -2.190413        -0.926395
 H         3.744514        -2.098621        -0.053654
