19
Iteration:    10charge 0 multiplicity 1
 C         0.063228         0.590221        -0.510640
 C         1.413977         0.020483        -0.066261
 C         1.884807        -1.434420         0.306088
 C         2.525644        -0.909432         1.592588
 C         2.549081         0.406480         0.982112
 O         2.668576         1.647679         1.533666
 C         2.860048         0.166249        -0.503626
 O         3.385920         1.328142        -1.117683
 C         3.122715        -1.339523        -0.633350
 H        -0.786997         0.082019         0.106485
 H         0.163550         1.672418        -0.507324
 H        -0.086958         0.350466        -1.528633
 H         1.140568        -2.430860         0.157882
 H         1.803416        -0.923661         2.574807
 H         3.480597        -1.474065         1.715493
 H         3.301828         2.212918         1.064639
 H         3.297461         1.356712        -2.086995
 H         3.037424        -1.555348        -1.679669
 H         4.060834        -1.579294        -0.346442
