19
Iteration:   547charge 0 multiplicity 1
 C         0.227069         0.611237        -0.461849
 C         1.448536         0.058130         0.067013
 C         1.791615        -1.409376         0.505744
 C         2.586025        -0.795460         1.695480
 C         2.565883         0.503421         0.927495
 O         2.688282         1.885341         1.386220
 C         2.811813         0.085987        -0.548158
 O         3.321994         1.007486        -1.385083
 C         3.008926        -1.418417        -0.525298
 H        -0.746602         0.718356         0.134488
 H         0.491043         1.698051        -0.739072
 H         0.037753         0.054947        -1.320206
 H         1.138935        -2.274704         0.420887
 H         2.070237        -0.663889         2.654494
 H         3.551060        -1.384589         1.895453
 H         3.648870         2.088739         1.023319
 H         2.955234         0.943011        -2.239686
 H         2.601097        -1.967035        -1.434498
 H         4.123344        -1.798392        -0.220717
