19
Iteration:  3452
 C        -0.017462         0.719136        -0.176464
 C         1.425072         0.160900         0.094076
 C         1.832881        -1.273869         0.774515
 C         2.508663        -0.442740         1.879074
 C         2.657096         0.665090         0.850740
 O         3.043652         1.948602         0.916178
 C         2.730801        -0.149642        -0.669179
 O         3.347726         0.559888        -1.659549
 C         2.894466        -1.517772        -0.301757
 H        -0.025714         1.218419        -1.157950
 H        -0.777144        -0.120293        -0.264614
 H        -0.362166         1.328482         0.752682
 H         1.009478        -1.988662         1.185123
 H         1.864299        -0.088965         2.659281
 H         3.367625        -0.942723         2.278590
 H         3.977424         1.995995         0.732877
 H         3.300927         0.109097        -2.519008
 H         2.517423        -2.279639        -1.079873
 H         3.815378        -1.979365        -0.015402
