19
Iteration:  2069charge 0 multiplicity 1
 C         0.149276         0.775951        -0.267451
 C         1.443615         0.105566         0.112272
 C         1.898163        -1.281319         0.911618
 C         2.616190        -0.459685         1.960382
 C         2.645481         0.606435         0.818892
 O         2.982154         1.991021         0.806462
 C         2.725103        -0.103786        -0.585666
 O         3.285209         0.567959        -1.627522
 C         2.768016        -1.627787        -0.314121
 H        -0.565139         0.104563         0.240966
 H        -0.149805         1.870459        -0.006274
 H        -0.095843         0.627946        -1.300892
 H         1.084850        -1.960632         1.289675
 H         2.021332        -0.050763         2.822187
 H         3.725456        -0.820243         2.175479
 H         3.370452         2.073948        -0.097734
 H         2.595114         0.561984        -2.410833
 H         2.341040        -2.250652        -1.060233
 H         3.774672        -1.969207        -0.050967
