19
Iteration:  4242
 C         0.108406         0.777888        -0.268120
 C         1.414447         0.096708         0.188656
 C         1.803028        -1.223019         1.052196
 C         2.646407        -0.251792         1.989699
 C         2.701788         0.616821         0.782620
 O         3.140946         2.000446         0.608024
 C         2.778985        -0.164766        -0.530922
 O         3.198094         0.335442        -1.806394
 C         2.715545        -1.606834        -0.143081
 H         0.245219         1.817243        -0.682936
 H        -0.426926         0.123322        -0.964079
 H        -0.587690         1.007380         0.579548
 H         1.100163        -1.913184         1.509978
 H         1.896053         0.344675         2.596246
 H         3.676636        -0.611168         2.386195
 H         3.933098         1.803658         0.068072
 H         2.488739         0.866118        -2.236333
 H         2.023574        -2.089295        -0.831423
 H         3.535862        -2.356430        -0.019666
