19
Iteration:  2176
 C         0.065732         0.590333        -0.282137
 C         1.406066         0.091594         0.128848
 C         1.796172        -1.189560         0.903093
 C         2.535970        -0.267176         1.964576
 C         2.683365         0.651154         0.791328
 O         3.206142         1.991919         0.927564
 C         2.740591        -0.193456        -0.631376
 O         3.253681         0.614953        -1.715277
 C         2.770651        -1.703935        -0.304577
 H        -0.296559         0.216557        -1.252488
 H        -0.528870         0.318226         0.613299
 H        -0.052561         1.813848        -0.164419
 H         1.205617        -2.075540         1.312702
 H         1.945119         0.125968         2.704435
 H         3.461970        -0.590564         2.336123
 H         3.374328         2.204272         0.064510
 H         2.641595         0.233476        -2.537805
 H         2.373164        -2.418355        -1.125464
 H         3.870148        -1.966700        -0.090341
