19
Iteration:  1828
 C         0.162642         0.641262        -0.254190
 C         1.434886         0.057547         0.124974
 C         1.777213        -1.269203         0.824584
 C         2.682416        -0.535864         1.840557
 C         2.630823         0.610662         0.773058
 O         2.903778         2.031426         0.892879
 C         2.737062        -0.036060        -0.570253
 O         3.324721         0.680234        -1.587783
 C         2.802265        -1.609668        -0.272263
 H        -0.344066         0.060348        -1.029954
 H        -0.492149         0.972413         0.620014
 H         0.507507         1.453195        -0.804374
 H         1.039946        -1.967143         1.074387
 H         2.061535        -0.115595         2.703011
 H         3.518592        -1.168861         2.123963
 H         3.827432         2.038677         0.476520
 H         2.737212         0.713349        -2.396913
 H         2.335441        -2.135279        -1.153598
 H         3.748456        -2.219997         0.005064
