19
Iteration:  4196
 C         0.129561         0.865984        -0.209851
 C         1.379460         0.120377         0.117758
 C         1.805822        -1.170113         1.021859
 C         2.719011        -0.287668         1.905502
 C         2.701322         0.688549         0.647880
 O         3.011465         2.013822         0.726689
 C         2.722739        -0.225985        -0.563916
 O         3.269250         0.301421        -1.787004
 C         2.693633        -1.688492        -0.105435
 H         0.077198         1.168337        -1.286683
 H        -0.659018         0.252769         0.053397
 H         0.081903         1.821507         0.366399
 H         1.125567        -1.969313         1.361268
 H         2.202453         0.168727         2.813844
 H         3.741536        -0.733767         2.040460
 H         3.991881         2.129902         0.878238
 H         2.382933         0.204803        -2.319016
 H         2.422093        -2.308459        -0.888366
 H         3.647277        -2.101406         0.260077
