19
Iteration:  3783charge 0 multiplicity 1
 C         0.139249         0.725950        -0.382210
 C         1.397090         0.151565         0.199069
 C         1.780425        -1.275153         0.954128
 C         2.721051        -0.376375         1.833544
 C         2.705583         0.606383         0.763645
 O         3.104998         2.010719         0.936986
 C         2.709567        -0.089446        -0.565092
 O         3.243842         0.496144        -1.680875
 C         2.712787        -1.672839        -0.223260
 H        -0.532436        -0.055756        -0.785011
 H        -0.467909         1.394515         0.211663
 H         0.454931         1.280563        -1.228099
 H         1.049475        -1.948336         1.323167
 H         2.160105        -0.087264         2.736073
 H         3.729091        -0.732482         2.246060
 H         3.107914         2.396041        -0.011786
 H         2.425641         0.602356        -2.292750
 H         2.261414        -2.240626        -1.092991
 H         3.574953        -2.246251        -0.061403
