19
Iteration:  4042charge 0 multiplicity 1
 C         0.084875         0.669235        -0.326032
 C         1.432806         0.133150         0.172210
 C         1.781112        -1.160316         0.991490
 C         2.728488        -0.285327         1.867500
 C         2.751248         0.691131         0.664341
 O         3.192627         2.003973         0.902506
 C         2.728496        -0.155423        -0.596026
 O         3.264675         0.433077        -1.703015
 C         2.600582        -1.753218        -0.226734
 H        -0.647777         0.579053         0.516771
 H        -0.073075         1.639483        -0.697201
 H        -0.384632        -0.064478        -1.087363
 H         0.969616        -1.663023         1.540685
 H         2.111408         0.224404         2.665504
 H         3.639313        -0.644990         2.467363
 H         3.282773         2.479169         0.014619
 H         2.418954         0.647091        -2.322094
 H         1.951588        -2.183409        -0.940040
 H         3.466219        -2.366346         0.179541
