19
Iteration:   335
 C         0.172354         0.506601        -0.517897
 C         1.458580         0.015361        -0.034948
 C         1.874313        -1.386755         0.420570
 C         2.498055        -0.729821         1.755144
 C         2.561090         0.537600         0.909412
 O         2.747549         1.744456         1.544691
 C         2.836853         0.140784        -0.573857
 O         3.403483         1.194217        -1.293026
 C         2.988990        -1.532049        -0.636984
 H        -0.306340        -0.141894        -1.287086
 H        -0.579282         0.458615         0.279941
 H         0.284705         1.613148        -0.777103
 H         1.080992        -2.306701         0.447533
 H         1.662217        -0.565291         2.534761
 H         3.488757        -1.225881         2.069757
 H         3.236625         2.316926         1.013372
 H         2.870687         1.516453        -2.149674
 H         2.567732        -1.968481        -1.586211
 H         3.922009        -2.011528        -0.308160
