19
Iteration:  4055
 C         0.067155         0.623000        -0.295000
 C         1.397161         0.199105         0.123228
 C         1.720167        -1.155785         0.991512
 C         2.699478        -0.281243         1.831446
 C         2.724977         0.636142         0.737191
 O         3.260005         1.987201         0.841228
 C         2.681196        -0.243069        -0.574260
 O         3.249639         0.492135        -1.684942
 C         2.635215        -1.616343        -0.138643
 H        -0.666844         0.159994         0.444662
 H         0.004998         1.717587        -0.412299
 H        -0.051214         0.126556        -1.356507
 H         1.094227        -1.919904         1.444990
 H         2.096222         0.216546         2.620100
 H         3.668880        -0.735859         2.121722
 H         3.492205         2.223555        -0.059388
 H         2.686648         0.438782        -2.451652
 H         2.141940        -2.319083        -0.841626
 H         3.608289        -2.201431        -0.020278
