19
Iteration:  3992
 C         0.135433         0.859220        -0.321555
 C         1.387516         0.114624         0.206708
 C         1.767376        -1.203146         0.928280
 C         2.703913        -0.400389         1.872286
 C         2.751629         0.613172         0.748072
 O         3.056090         2.033242         0.804516
 C         2.678206        -0.213483        -0.571941
 O         3.142792         0.440727        -1.692875
 C         2.832473        -1.608565        -0.161642
 H        -0.271713         1.797131         0.143860
 H         0.355735         0.980947        -1.465094
 H        -0.850066         0.367119        -0.295726
 H         1.214691        -2.015533         1.387639
 H         2.217932         0.090300         2.719425
 H         3.649714        -0.836985         2.187121
 H         3.915478         2.043630         0.350194
 H         2.678412        -0.092734        -2.282441
 H         2.384417        -2.425124        -0.928187
 H         3.767015        -2.112364         0.086840
