19
Iteration:  1978
 C         0.067714         0.614971        -0.276244
 C         1.410830         0.072155         0.156481
 C         1.806338        -1.209033         0.841615
 C         2.661160        -0.458738         1.841163
 C         2.638982         0.692670         0.812241
 O         3.039504         2.009413         0.850708
 C         2.778183        -0.118385        -0.557584
 O         3.362167         0.629599        -1.567605
 C         2.719004        -1.638344        -0.301744
 H        -0.079401         1.608094         0.121181
 H        -0.000184         0.743883        -1.366428
 H        -0.695985        -0.105186         0.037454
 H         1.091595        -1.974036         1.079394
 H         2.193397        -0.202080         2.769169
 H         3.667469        -1.077591         2.007618
 H         3.396554         2.258119        -0.002048
 H         2.661117         0.760460        -2.350439
 H         2.115149        -2.193550        -0.956872
 H         3.570351        -2.185176         0.038832
