19
Iteration:   264charge 0 multiplicity 1
 C         0.079361         0.578394        -0.574196
 C         1.399834        -0.025518        -0.050042
 C         1.917732        -1.436075         0.425782
 C         2.504678        -0.811019         1.702093
 C         2.574186         0.482666         0.901710
 O         2.762988         1.710853         1.448781
 C         2.858027         0.106279        -0.538748
 O         3.364124         1.255592        -1.162713
 C         3.035046        -1.394868        -0.596031
 H        -0.702914         0.228617         0.134119
 H         0.057342         1.654710        -0.285362
 H        -0.164812         0.573415        -1.635231
 H         1.401674        -2.254218         0.471221
 H         1.780433        -0.630425         2.462413
 H         3.454837        -1.201027         2.128460
 H         3.520285         2.082585         0.937383
 H         2.935234         1.223366        -2.127118
 H         2.560992        -1.795706        -1.521137
 H         4.019404        -2.018824        -0.267488
