19
Iteration:  2147charge 0 multiplicity 1
 C         0.052217         0.629576        -0.307264
 C         1.338264         0.098675         0.172683
 C         1.768498        -1.274766         0.913466
 C         2.598621        -0.367987         1.808773
 C         2.649319         0.657947         0.747250
 O         3.187273         1.943241         0.890492
 C         2.732301        -0.064843        -0.580514
 O         3.251682         0.565328        -1.656843
 C         2.816247        -1.526890        -0.200573
 H        -0.660856        -0.111760        -0.697805
 H        -0.496658         0.842872         0.661429
 H         0.124938         1.435669        -0.972635
 H         1.308049        -2.236703         1.233591
 H         2.080901         0.050658         2.768411
 H         3.650858        -0.791787         2.184778
 H         3.627566         2.076031         0.031390
 H         2.950005         0.029596        -2.451780
 H         2.432630        -2.032975        -1.053691
 H         3.821092        -1.898603         0.007660
