19
Iteration:  3559charge 0 multiplicity 1
 C         0.192057         0.733274        -0.371765
 C         1.408164         0.103122         0.118494
 C         1.791386        -1.247783         0.821785
 C         2.656955        -0.393936         1.934026
 C         2.712389         0.596395         0.812843
 O         3.023089         1.949080         0.877213
 C         2.687059        -0.160638        -0.562432
 O         3.192170         0.640608        -1.585069
 C         2.811177        -1.659067        -0.314611
 H         0.330185         1.779076        -0.338018
 H         0.028583         0.360820        -1.341853
 H        -0.690084         0.508421         0.239790
 H         0.993667        -1.896516         1.298017
 H         1.898207        -0.149957         2.791350
 H         3.670679        -0.821791         2.344037
 H         3.857359         2.372501         0.486791
 H         2.622079         0.405048        -2.388830
 H         2.282500        -2.304326        -1.018427
 H         3.777001        -2.028887         0.086064
