19
Iteration:  3219charge 0 multiplicity 1
 C         0.172388         0.848700        -0.232889
 C         1.324901        -0.033484         0.134141
 C         1.855454        -1.276391         0.955277
 C         2.707147        -0.392487         1.926356
 C         2.573760         0.569843         0.722320
 O         2.960123         1.952819         0.798576
 C         2.761231        -0.114545        -0.535699
 O         3.324284         0.615958        -1.649838
 C         2.775711        -1.603537        -0.310377
 H        -0.817783         0.499799         0.232888
 H         0.201569         1.882297         0.230262
 H         0.022845         0.948819        -1.387896
 H         1.213087        -2.041786         1.241818
 H         2.088397        -0.076799         2.853770
 H         3.635550        -0.935775         2.241864
 H         3.272132         2.129209        -0.088842
 H         3.105569         0.215677        -2.490582
 H         2.243756        -2.316327        -0.902194
 H         3.763139        -2.067346        -0.126809
