19
Iteration:  2152charge 0 multiplicity 1
 C         0.031507         0.616310        -0.296508
 C         1.349661         0.082570         0.158705
 C         1.821965        -1.271340         0.900764
 C         2.580351        -0.363318         1.837855
 C         2.650703         0.647848         0.755217
 O         3.196761         1.927948         0.905735
 C         2.737833        -0.089039        -0.572829
 O         3.230837         0.545666        -1.676182
 C         2.829249        -1.483132        -0.189436
 H        -0.565621        -0.164734        -0.881845
 H        -0.432130         0.866135         0.645992
 H         0.041014         1.679245        -0.842058
 H         1.217714        -2.092869         1.251676
 H         2.033332         0.121216         2.618519
 H         3.492762        -0.620290         2.236470
 H         3.603735         2.083562        -0.031261
 H         3.042422         0.172418        -2.536435
 H         2.266788        -1.908341        -1.137416
 H         3.773001        -2.077718        -0.023319
