19
Iteration:  3032charge 0 multiplicity 1
 C         0.145510         0.751984        -0.211312
 C         1.420009         0.090244         0.105496
 C         1.780562        -1.245260         0.913084
 C         2.618691        -0.414790         1.853777
 C         2.708503         0.643037         0.733356
 O         3.065494         2.100200         0.905514
 C         2.681116        -0.161059        -0.597436
 O         3.228287         0.474546        -1.780357
 C         2.814068        -1.666954        -0.166516
 H         0.152442         1.309694        -1.118808
 H        -0.483695        -0.071462        -0.491669
 H        -0.308624         1.436195         0.495460
 H         1.070513        -1.996808         1.343604
 H         2.021458         0.055574         2.724865
 H         3.508789        -0.979816         2.198755
 H         3.830565         2.605420         0.384493
 H         2.596669         0.373383        -2.431746
 H         2.388437        -2.490955        -0.763121
 H         3.828341        -2.087527         0.178513
