19
Iteration:  3902charge 0 multiplicity 1
 C        -0.060034         0.717835        -0.141571
 C         1.314154         0.098247         0.074014
 C         1.734116        -1.132468         0.983162
 C         2.708211        -0.354360         1.875885
 C         2.673042         0.677965         0.762282
 O         3.078565         1.973282         0.848701
 C         2.766162        -0.145654        -0.629865
 O         3.479197         0.382588        -1.734675
 C         2.721340        -1.618051        -0.258762
 H         0.019348         1.277901        -1.117033
 H        -0.784095        -0.086655        -0.365093
 H        -0.348585         1.479761         0.676394
 H         1.003922        -1.792217         1.403194
 H         2.417390        -0.046063         2.876491
 H         3.734570        -0.683784         2.077359
 H         3.391650         2.388282         0.018822
 H         2.941058         0.675365        -2.409863
 H         2.085322        -2.333694        -0.932411
 H         3.665559        -2.185977         0.055752
