19
Iteration:  3589
 C         0.152769         0.714042        -0.388942
 C         1.385182         0.080916         0.118214
 C         1.826726        -1.332294         0.878981
 C         2.644396        -0.361604         1.960855
 C         2.652451         0.637624         0.819704
 O         3.091253         1.931520         0.991074
 C         2.776990        -0.078237        -0.528311
 O         3.159875         0.628033        -1.812577
 C         2.783090        -1.614737        -0.251982
 H         0.115396         1.814570        -0.164814
 H         0.104468         0.769970        -1.524106
 H        -0.755113         0.224318        -0.091383
 H         1.171768        -1.936159         1.376305
 H         1.780719        -0.151922         2.616297
 H         3.605517        -0.697896         2.311921
 H         3.982474         2.101254         0.891973
 H         2.782207         0.143402        -2.482541
 H         2.226140        -2.162220        -1.018044
 H         3.635099        -2.288487         0.019369
