19
Iteration:   653charge 0 multiplicity 1
 C        -0.021953         0.554938        -0.348324
 C         1.324113         0.052773         0.042426
 C         1.936668        -1.415619         0.566642
 C         2.518919        -0.659081         1.773075
 C         2.492142         0.557464         0.832269
 O         2.830980         1.855891         1.295454
 C         2.757261         0.056127        -0.644903
 O         3.545692         0.925822        -1.291451
 C         3.005827        -1.407989        -0.609855
 H        -0.210930         0.212472        -1.380032
 H        -0.855247         0.305987         0.308576
 H         0.109848         1.665739        -0.290872
 H         1.223200        -2.206410         0.709129
 H         1.876551        -0.506410         2.579917
 H         3.518724        -1.070264         1.921890
 H         3.709300         2.117324         0.926181
 H         3.270915         1.057478        -2.144161
 H         2.532691        -1.924576        -1.428491
 H         3.966819        -1.701526        -0.488104
