19
Iteration:  2142
 C         0.047279         0.628919        -0.280927
 C         1.336234         0.097982         0.150739
 C         1.744785        -1.271714         0.912038
 C         2.650377        -0.379033         1.843794
 C         2.644812         0.679111         0.740318
 O         3.173224         1.951876         0.877269
 C         2.708284        -0.062897        -0.546428
 O         3.272835         0.586827        -1.657419
 C         2.812897        -1.559738        -0.235279
 H        -0.646368        -0.141723        -0.658565
 H        -0.558374         1.005438         0.544203
 H         0.205388         1.383800        -1.140441
 H         1.248226        -2.177574         1.269507
 H         2.146140        -0.101016         2.707341
 H         3.546626        -0.862151         2.068371
 H         3.676810         2.153743         0.062406
 H         2.892626        -0.016904        -2.362710
 H         2.483093        -2.324103        -1.032040
 H         3.860283        -1.807463         0.109636
