19
Iteration:   606
 C         0.104870         0.567130        -0.348173
 C         1.433300         0.051485        -0.010772
 C         1.837219        -1.390220         0.505295
 C         2.448464        -0.695035         1.770603
 C         2.599730         0.503868         0.939132
 O         2.840877         1.829848         1.298144
 C         2.818405         0.056188        -0.577233
 O         3.408841         1.066104        -1.342551
 C         3.035108        -1.491142        -0.583343
 H        -0.595328        -0.241612        -0.375343
 H        -0.194278         1.282477         0.401791
 H         0.175075         1.219740        -1.294012
 H         0.985627        -2.274018         0.694165
 H         1.501814        -0.527093         2.346815
 H         3.257037        -1.131647         2.289176
 H         2.967180         2.171768         0.428419
 H         3.061325         1.062042        -2.292728
 H         2.838558        -2.024537        -1.491985
 H         4.012792        -1.776041        -0.226945
