19
Iteration:   458charge 0 multiplicity 1
 C         0.047020         0.601375        -0.369676
 C         1.457112         0.077276        -0.065919
 C         1.887813        -1.350962         0.437063
 C         2.481051        -0.875554         1.812885
 C         2.470553         0.473675         0.963313
 O         2.747608         1.807092         1.347275
 C         2.849854         0.096963        -0.531972
 O         3.476852         1.076379        -1.371232
 C         3.077638        -1.363709        -0.585968
 H        -0.014563         1.758909        -0.350991
 H        -0.261228         0.170306        -1.378879
 H        -0.631774         0.257955         0.339093
 H         1.275259        -2.131039         0.572745
 H         1.692941        -0.874851         2.553205
 H         3.402418        -1.403323         2.229242
 H         3.179505         2.224783         0.510545
 H         2.952792         0.916423        -2.201903
 H         2.852738        -1.869956        -1.537669
 H         4.034798        -1.766736        -0.154243
