19
Iteration:  2659
 C         0.130660         0.722083        -0.317948
 C         1.389205         0.135996         0.184130
 C         1.776620        -1.150988         1.056256
 C         2.837077        -0.353456         1.920663
 C         2.679268         0.643074         0.754033
 O         3.106480         2.044993         0.602459
 C         2.684299        -0.196276        -0.530103
 O         3.210132         0.491479        -1.590662
 C         2.641300        -1.720214        -0.224334
 H         0.036354         0.644575        -1.415809
 H        -0.649738         0.124718         0.202503
 H        -0.096259         1.810244         0.009065
 H         1.050227        -1.801897         1.651454
 H         2.433148         0.189483         2.861745
 H         3.779596        -0.814782         2.095195
 H         3.584100         2.062670        -0.319863
 H         2.719602         0.234560        -2.484350
 H         2.133287        -2.534399        -0.921411
 H         3.610030        -2.143161         0.112057
