19
Iteration:  1645
 C         0.062257         0.695669        -0.371499
 C         1.374552         0.015516         0.106426
 C         1.919147        -1.279245         0.806492
 C         2.628855        -0.408208         1.921685
 C         2.644347         0.594811         0.862424
 O         2.978480         1.915240         1.055383
 C         2.800675        -0.074152        -0.614051
 O         3.298064         0.730405        -1.533458
 C         2.788954        -1.619652        -0.467685
 H        -0.257159         1.696000        -0.056539
 H         0.166807         0.692954        -1.417576
 H        -0.890882         0.096341        -0.076102
 H         1.422431        -2.119423         1.188904
 H         1.926022        -0.291850         2.659755
 H         3.520793        -0.752266         2.370451
 H         3.483401         2.322824         0.262848
 H         3.018769         0.635781        -2.497103
 H         2.157436        -2.173445        -1.246163
 H         3.731168        -2.215141        -0.358708
