19
Iteration:  4319
 C         0.132093         0.651518        -0.256432
 C         1.400916         0.236198         0.227440
 C         1.801566        -1.206172         1.038513
 C         2.663708        -0.177673         1.924641
 C         2.723760         0.689374         0.731805
 O         3.283942         1.996149         0.611065
 C         2.658258        -0.161359        -0.537915
 O         3.137524         0.401709        -1.707528
 C         2.584493        -1.698096        -0.199048
 H        -0.225998         1.445485         0.446361
 H        -0.016130         0.896825        -1.321293
 H        -0.494392        -0.263661        -0.105862
 H         1.073388        -1.876244         1.475720
 H         1.958594         0.045722         2.812855
 H         3.561227        -0.639142         2.553296
 H         3.936059         2.216262        -0.091995
 H         3.692695        -0.355389        -2.178059
 H         1.998848        -2.242702        -0.906665
 H         3.520707        -2.276457        -0.203770
