19
Iteration:  2173
 C         0.048931         0.593767        -0.262298
 C         1.392264         0.081723         0.103583
 C         1.819028        -1.187695         0.913141
 C         2.555986        -0.257934         1.965677
 C         2.675856         0.655231         0.789210
 O         3.207380         1.959986         0.932284
 C         2.746706        -0.147661        -0.631599
 O         3.247638         0.601974        -1.714576
 C         2.779850        -1.695128        -0.313461
 H        -0.414142         0.186157        -1.241109
 H        -0.627159         0.336844         0.553987
 H         0.060240         1.813235        -0.349978
 H         1.225153        -1.990865         1.246530
 H         1.827479         0.050539         2.781061
 H         3.428238        -0.630255         2.473634
 H         3.457448         2.278467        -0.026324
 H         2.703984         0.132686        -2.357738
 H         2.330413        -2.412078        -1.113060
 H         3.839366        -1.945493        -0.126936
