19
Iteration:  1334charge 0 multiplicity 1
 C         0.016593         0.663005        -0.340203
 C         1.417077         0.014416         0.053509
 C         1.907281        -1.370111         0.734148
 C         2.550077        -0.541629         1.896942
 C         2.609442         0.575066         0.857062
 O         2.947536         1.897931         1.123739
 C         2.745608         0.008858        -0.555595
 O         3.358145         0.793296        -1.564341
 C         2.933248        -1.495282        -0.501372
 H        -0.682757         0.498782         0.521999
 H         0.197059         1.790163        -0.452512
 H        -0.359940         0.461390        -1.327623
 H         1.218499        -2.050637         1.145288
 H         1.550010        -0.493087         2.452710
 H         3.369386        -0.917831         2.527006
 H         3.756224         2.038231         0.588447
 H         3.029335         0.568544        -2.489437
 H         2.294741        -1.968793        -1.298012
 H         3.913967        -1.919455        -0.249660
