19
Iteration:  4502charge 0 multiplicity 1
 C         0.054020         0.655766        -0.167231
 C         1.488069         0.188208         0.143645
 C         1.679524        -1.049675         1.069378
 C         2.620363        -0.210325         1.978199
 C         2.761284         0.642619         0.726124
 O         3.444522         1.940472         0.447206
 C         2.725282        -0.211012        -0.542493
 O         3.064562         0.315352        -1.782485
 C         2.620643        -1.692228        -0.085447
 H        -0.112423         0.457636        -1.305021
 H        -0.609919        -0.030054         0.290112
 H        -0.310824         1.680577         0.167506
 H         0.810140        -1.547804         1.535236
 H         2.050503         0.408594         2.712957
 H         3.539783        -0.489454         2.411971
 H         2.766856         2.611149         0.379790
 H         3.978594         0.819139        -1.695877
 H         2.144011        -2.303748        -0.840895
 H         3.543485        -2.276404         0.313786
