19
Iteration:  2747charge 0 multiplicity 1
 C         0.038046         0.769783        -0.093325
 C         1.407024         0.064556         0.060458
 C         1.816721        -1.200565         0.962659
 C         2.584364        -0.279696         1.972540
 C         2.714263         0.652841         0.702301
 O         3.143748         1.975811         0.746479
 C         2.681091        -0.128587        -0.598012
 O         3.268822         0.382022        -1.775398
 C         2.824565        -1.603379        -0.177903
 H        -0.637171         0.076312        -0.591548
 H        -0.301987         0.890013         0.936027
 H         0.097984         1.708891        -0.749186
 H         0.890685        -1.834421         1.313260
 H         2.005797         0.413652         2.643819
 H         3.483093        -0.615879         2.378252
 H         3.643446         2.020298        -0.021066
 H         2.876800        -0.118105        -2.521560
 H         2.104038        -2.206993        -0.803717
 H         3.776677        -2.046631         0.019196
