19
Iteration:  4416charge 0 multiplicity 1
 C         0.240381         0.791729        -0.212684
 C         1.392423         0.148780         0.273724
 C         1.801798        -1.099396         1.055484
 C         2.696990        -0.264132         1.978033
 C         2.760835         0.688352         0.739452
 O         3.127988         1.982343         0.511166
 C         2.745374        -0.221842        -0.571273
 O         3.115160         0.175705        -1.820599
 C         2.626104        -1.652678        -0.170370
 H        -0.723325         0.193951        -0.060181
 H         0.079377         1.706417         0.332007
 H         0.485448         1.202079        -1.241719
 H         1.089015        -1.788291         1.502220
 H         2.133447         0.386269         2.731676
 H         3.644539        -0.630441         2.324899
 H         2.545368         2.627110         0.926276
 H         3.699654         0.886455        -1.837116
 H         1.924677        -2.040631        -0.875674
 H         3.393073        -2.465117         0.112131
