19
Iteration:  4438
 C         0.161998         0.870184        -0.262521
 C         1.357571         0.156955         0.140700
 C         1.759232        -1.168265         1.083403
 C         2.805004        -0.295892         1.928299
 C         2.762574         0.679339         0.669456
 O         3.160328         2.038406         0.504932
 C         2.698965        -0.296108        -0.576910
 O         3.148681         0.218498        -1.752140
 C         2.622677        -1.708305        -0.036016
 H        -0.504152        -0.025677        -0.557526
 H        -0.431128         1.368585         0.469916
 H         0.329843         1.669749        -1.049748
 H         0.953244        -1.571717         1.670192
 H         2.277265         0.187475         2.825462
 H         3.780620        -0.642858         2.163001
 H         3.057866         2.596756         1.320700
 H         3.222043         1.275335        -1.660584
 H         2.013039        -2.339862        -0.647902
 H         3.669764        -2.187139         0.132485
