19
Iteration:  3823
 C         0.129987         0.691413        -0.389659
 C         1.379811         0.140024         0.208488
 C         1.769576        -1.250566         0.893219
 C         2.668827        -0.353149         1.932869
 C         2.662011         0.696919         0.789262
 O         3.212982         1.888988         0.786338
 C         2.606751        -0.174654        -0.508760
 O         3.126811         0.638813        -1.639380
 C         2.797346        -1.662771        -0.253550
 H        -0.028379         0.326791        -1.416151
 H        -0.747690         0.597714         0.240359
 H         0.427001         1.817015        -0.519894
 H         1.091912        -1.975567         1.405151
 H         2.087852         0.110135         2.732125
 H         3.607326        -0.720597         2.273624
 H         3.853296         1.964071         0.115792
 H         3.232939         0.158144        -2.420530
 H         2.364270        -2.416039        -0.889223
 H         3.822865        -2.035386         0.159496
