19
Iteration:  1145
 C         0.053319         0.672784        -0.302316
 C         1.445808         0.090934         0.008005
 C         1.807673        -1.337442         0.642493
 C         2.594013        -0.610555         1.750071
 C         2.644676         0.555974         0.818442
 O         2.832746         1.868707         1.173439
 C         2.820156        -0.003585        -0.595250
 O         3.405330         0.845212        -1.455073
 C         2.908670        -1.523240        -0.383324
 H         0.189628         1.475789        -1.067247
 H        -0.650490        -0.152872        -0.641999
 H        -0.423676         1.123508         0.575077
 H         1.162662        -2.242840         0.855916
 H         1.855400        -0.470160         2.670777
 H         3.602354        -1.160148         2.024739
 H         3.286508         2.357493         0.437095
 H         2.792010         0.910353        -2.215472
 H         2.610434        -2.094059        -1.269701
 H         3.802920        -1.987290        -0.015236
