19
Iteration:  1005
 C         0.099671         0.551029        -0.347027
 C         1.412508         0.040697         0.053115
 C         1.772495        -1.347373         0.584656
 C         2.520700        -0.642094         1.825259
 C         2.532548         0.572033         0.894712
 O         2.975462         1.919942         1.152773
 C         2.779694        -0.004807        -0.517571
 O         3.396797         0.901363        -1.485733
 C         2.965079        -1.434057        -0.436359
 H        -0.148691         0.245092        -1.436612
 H        -0.770125         0.197613         0.303989
 H         0.082649         1.638913        -0.316974
 H         0.950666        -2.066605         0.513378
 H         1.912416        -0.568770         2.789692
 H         3.416669        -1.156725         2.073995
 H         3.669417         2.116796         0.496309
 H         2.691328         0.990193        -2.119157
 H         2.650388        -2.022796        -1.389095
 H         3.926444        -2.014407        -0.160842
