19
Iteration:  2225charge 0 multiplicity 1
 C         0.060864         0.764409        -0.323305
 C         1.394868         0.133219         0.164749
 C         1.831969        -1.351520         1.000487
 C         2.764751        -0.386502         1.924026
 C         2.563659         0.683014         0.783709
 O         3.046824         2.007304         0.763901
 C         2.641281        -0.108767        -0.585962
 O         3.314226         0.534248        -1.608847
 C         2.798362        -1.669541        -0.275782
 H         0.330794         0.909043        -1.358811
 H        -0.784585         0.095442        -0.136987
 H        -0.290533         1.602972         0.165824
 H         1.021793        -1.985732         1.271448
 H         2.225448        -0.127985         2.948030
 H         3.864065        -0.776075         2.083135
 H         3.670926         2.097174        -0.062970
 H         2.782623         0.416267        -2.338478
 H         2.298343        -2.216648        -1.023858
 H         3.761233        -2.133552        -0.186416
