19
Iteration:  1637charge 0 multiplicity 1
 C         0.058171         0.651992        -0.355984
 C         1.433752         0.035475         0.098293
 C         1.950232        -1.306274         0.820295
 C         2.584020        -0.444829         1.901698
 C         2.624247         0.639079         0.844521
 O         2.985386         1.915691         1.080733
 C         2.765856        -0.053622        -0.565411
 O         3.345712         0.761396        -1.601081
 C         2.794098        -1.623141        -0.449562
 H         0.075142         1.724520        -0.030449
 H        -0.067041         0.745668        -1.457054
 H        -0.761076         0.102635         0.049673
 H         1.233060        -2.098681         1.145309
 H         1.826245        -0.205294         2.669687
 H         3.484310        -0.866673         2.435402
 H         3.190795         2.268330         0.094704
 H         2.859505         0.435139        -2.498295
 H         1.995743        -2.016276        -1.129414
 H         3.676398        -2.386162        -0.375304
