19
Iteration:  4713
 C         0.044288         0.680664        -0.233164
 C         1.430475         0.186968         0.275389
 C         1.792782        -1.008985         1.161812
 C         2.811183        -0.140318         1.946060
 C         2.799968         0.768917         0.684073
 O         3.420637         1.963042         0.305036
 C         2.575205        -0.293938        -0.529095
 O         3.100215         0.156328        -1.705979
 C         2.501935        -1.686200        -0.098987
 H        -0.581135        -0.285759        -0.296180
 H        -0.507358         1.437235         0.308072
 H         0.163750         1.044172        -1.301182
 H         0.895219        -1.545876         1.569186
 H         2.311719         0.382868         2.895617
 H         3.743465        -0.641157         2.373547
 H         2.699582         2.598124         0.421158
 H         3.735697         0.843216        -1.591638
 H         1.722533        -2.239870        -0.582393
 H         3.350679        -2.286981         0.215755
