19
Iteration:   893
 C         0.124693         0.667529        -0.322775
 C         1.419490        -0.048200        -0.059625
 C         1.854637        -1.437491         0.653561
 C         2.442287        -0.524350         1.862497
 C         2.625548         0.546167         0.834065
 O         2.860974         1.832305         1.268211
 C         2.870806        -0.018967        -0.585319
 O         3.330445         0.949238        -1.469485
 C         2.991925        -1.480994        -0.502506
 H        -0.709023        -0.027061        -0.082196
 H         0.157012         1.618333         0.177164
 H        -0.001844         0.920234        -1.401685
 H         1.338883        -2.399200         0.687476
 H         1.634344        -0.151947         2.514051
 H         3.286637        -0.904520         2.368865
 H         3.350845         2.242114         0.508123
 H         2.619800         1.127678        -2.203967
 H         2.667001        -1.974711        -1.471530
 H         3.968458        -2.082312        -0.324145
