19
Iteration:  1466
 C         0.115817         0.662671        -0.351954
 C         1.393671         0.068498         0.045658
 C         1.830147        -1.403333         0.749698
 C         2.562132        -0.526973         1.840408
 C         2.610798         0.600924         0.837236
 O         2.992866         1.899846         1.175481
 C         2.740481        -0.025944        -0.565753
 O         3.328784         0.768636        -1.637453
 C         2.913691        -1.483996        -0.345477
 H        -0.366592        -0.019220        -1.088904
 H        -0.527324         0.842840         0.607888
 H         0.246785         1.649052        -0.885437
 H         1.043604        -2.154842         1.014934
 H         1.888122        -0.373763         2.758323
 H         3.509531        -0.918874         2.121262
 H         3.290426         2.302446         0.264892
 H         2.736871         0.714557        -2.513504
 H         2.391211        -2.133362        -1.222287
 H         3.970408        -1.987609        -0.078167
