19
Iteration:  3432
 C         0.042415         0.746917        -0.259829
 C         1.327089         0.050061         0.035722
 C         1.849698        -1.293293         0.887851
 C         2.596248        -0.419428         1.923512
 C         2.629148         0.611058         0.752668
 O         3.037490         1.997116         0.990193
 C         2.734478        -0.078860        -0.569596
 O         3.361647         0.602330        -1.733085
 C         2.818439        -1.636213        -0.282027
 H         0.282749         1.457450        -1.084927
 H        -0.752598         0.005346        -0.595187
 H        -0.300204         1.228423         0.702316
 H         1.085558        -2.148612         1.113599
 H         1.996915        -0.223289         2.777764
 H         3.574459        -0.732588         2.442434
 H         3.999270         2.079438         0.616244
 H         2.895264         0.609378        -2.657415
 H         2.427181        -2.259433        -1.152720
 H         3.760918        -2.052368        -0.042445
