19
Iteration:  4667
 C        -0.015916         0.754009        -0.171638
 C         1.414729         0.178709         0.172495
 C         1.722812        -1.022573         1.092506
 C         2.780446        -0.131052         1.859216
 C         2.728977         0.747423         0.636518
 O         3.395736         1.964572         0.575907
 C         2.622906        -0.276608        -0.589238
 O         3.087299         0.104911        -1.860899
 C         2.636647        -1.709674         0.051660
 H        -0.639120         0.542787         0.738514
 H         0.211976         1.773090        -0.276099
 H        -0.348395         0.307991        -1.136524
 H         1.037421        -1.478105         1.802890
 H         2.317745         0.411172         2.812014
 H         3.741975        -0.689288         2.176008
 H         2.880208         2.585334        -0.027048
 H         3.880400         0.646097        -1.810423
 H         2.207620        -2.388172        -0.620134
 H         3.621966        -2.007815         0.354088
