19
Iteration:  1661
 C         0.111654         0.645801        -0.419459
 C         1.373172         0.070031         0.151997
 C         1.807364        -1.370787         0.823825
 C         2.706851        -0.485794         1.822554
 C         2.613853         0.599542         0.776228
 O         2.983702         1.934473         0.988795
 C         2.665597        -0.062899        -0.547124
 O         3.299582         0.767226        -1.493781
 C         2.842412        -1.565072        -0.373013
 H        -0.104365         1.582522         0.130574
 H         0.185313         1.049250        -1.492597
 H        -0.684036        -0.010826        -0.254096
 H         0.998928        -2.134138         1.105304
 H         2.178281        -0.093279         2.802286
 H         3.744753        -0.846237         2.180488
 H         3.784207         2.055416         0.509917
 H         2.872058         0.572805        -2.280871
 H         2.468097        -2.117933        -1.218810
 H         3.894976        -1.936469        -0.120595
