19
Iteration:  4047charge 0 multiplicity 1
 C         0.095566         0.662756        -0.319911
 C         1.405780         0.155592         0.151859
 C         1.752596        -1.163353         0.984684
 C         2.737201        -0.299070         1.846566
 C         2.726646         0.650693         0.669077
 O         3.223391         2.022048         0.894187
 C         2.695700        -0.195430        -0.597338
 O         3.263877         0.459338        -1.695046
 C         2.633248        -1.718458        -0.194385
 H        -0.613488         0.421790         0.507199
 H        -0.219333         1.752366        -0.590115
 H        -0.143947        -0.076324        -1.096565
 H         1.039136        -1.717175         1.601055
 H         2.140632         0.275548         2.539367
 H         3.575206        -0.599731         2.420607
 H         3.316839         2.327315         0.000030
 H         2.537271         0.532094        -2.210935
 H         1.891118        -2.146308        -0.961958
 H         3.460634        -2.272261         0.208501
