19
Iteration:  4813
 C         0.176952         0.846541        -0.143245
 C         1.510356         0.248743         0.199097
 C         1.765059        -1.005992         1.160026
 C         2.774622        -0.167148         1.913803
 C         2.796971         0.771571         0.621776
 O         3.271412         2.013530         0.389871
 C         2.618982        -0.374081        -0.533616
 O         2.984621        -0.000503        -1.891305
 C         2.588394        -1.723065         0.094814
 H         0.212488         1.871465        -0.550838
 H        -0.332672         0.228967        -0.903561
 H        -0.470699         0.912867         0.763925
 H         0.908241        -1.313655         1.723422
 H         2.281166         0.544061         2.702444
 H         3.723880        -0.620074         2.345032
 H         2.575123         2.651563         0.388774
 H         3.913838         0.078400        -2.013345
 H         2.067503        -2.456788        -0.519573
 H         3.575974        -1.968847         0.400970
