19
Iteration:  4456charge 0 multiplicity 1
 C         0.080150         0.807062        -0.291811
 C         1.331240         0.083698         0.184327
 C         1.751097        -1.104478         1.114646
 C         2.814177        -0.140145         1.849127
 C         2.663817         0.693550         0.671948
 O         3.257066         1.877009         0.502232
 C         2.636307        -0.218728        -0.511596
 O         3.201675         0.241312        -1.775662
 C         2.651693        -1.664154        -0.037522
 H        -0.551415         0.364722        -1.097123
 H        -0.619980         1.124401         0.534856
 H         0.414218         1.822307        -0.560245
 H         1.153285        -1.865544         1.705493
 H         2.497002         0.143406         2.832585
 H         3.733811        -0.773994         2.039564
 H         3.144774         2.293420         1.394530
 H         3.269117         1.317330        -1.726754
 H         2.153751        -2.439976        -0.692853
 H         3.651462        -2.064068         0.262420
