19
Iteration:  2761charge 0 multiplicity 1
 C         0.091370         0.765176        -0.130270
 C         1.338069         0.138281         0.156725
 C         1.874183        -1.164190         0.972569
 C         2.638283        -0.244204         1.926042
 C         2.632529         0.680828         0.735359
 O         3.125407         1.960873         0.753733
 C         2.709883        -0.225998        -0.636355
 O         3.254579         0.365405        -1.726171
 C         2.756501        -1.608492        -0.243564
 H        -0.788656         0.122835        -0.429382
 H        -0.343886         1.405528         0.697322
 H         0.252396         1.574491        -0.953023
 H         1.361199        -2.042759         1.357096
 H         1.820387        -0.093842         2.631073
 H         3.525910        -0.688103         2.525366
 H         3.728012         2.217761        -0.055789
 H         3.010192        -0.123212        -2.528212
 H         2.340856        -2.412933        -1.002281
 H         3.851115        -1.963556         0.039256
