19
Iteration:  1384charge 0 multiplicity 1
 C        -0.003241         0.684085        -0.319519
 C         1.402822         0.129630         0.056852
 C         1.855212        -1.338746         0.707054
 C         2.668734        -0.604501         1.804346
 C         2.545439         0.597754         0.826337
 O         2.893833         1.947879         1.053091
 C         2.785568        -0.032116        -0.564224
 O         3.454700         0.776650        -1.440446
 C         2.874009        -1.574177        -0.395435
 H        -0.746260        -0.055346        -0.012114
 H        -0.247096         1.609444         0.174579
 H        -0.057774         0.937277        -1.395401
 H         1.205320        -2.214724         0.977673
 H         2.172363        -0.563451         2.743841
 H         3.675972        -1.185240         1.875820
 H         3.119502         2.191379         0.089225
 H         2.873957         0.841285        -2.270370
 H         2.381764        -2.144371        -1.176217
 H         3.833704        -2.028165        -0.087543
