19
Iteration:  1571
 C         0.061296         0.664709        -0.233992
 C         1.271666        -0.050475         0.039176
 C         1.884544        -1.331056         0.770786
 C         2.553139        -0.449298         1.825048
 C         2.549575         0.569317         0.792623
 O         3.007689         1.900623         1.072761
 C         2.706864         0.007829        -0.566111
 O         3.414521         0.769259        -1.602409
 C         2.915004        -1.535353        -0.375667
 H         0.298498         1.288806        -1.138783
 H        -0.818279         0.109875        -0.585602
 H        -0.209750         1.363322         0.564487
 H         1.329200        -2.199074         1.056375
 H         1.998829        -0.114887         2.713416
 H         3.571336        -0.911791         2.207893
 H         3.728181         2.074659         0.496070
 H         3.033706         0.548272        -2.384181
 H         2.418119        -1.995714        -1.253148
 H         3.913928        -2.071749        -0.124322
