19
Iteration:  3498charge 0 multiplicity 1
 C         0.007692         0.744413        -0.178049
 C         1.381915         0.150151         0.096597
 C         1.844396        -1.265661         0.848368
 C         2.594170        -0.423158         1.896842
 C         2.629917         0.641247         0.714778
 O         3.000703         1.961603         0.896859
 C         2.732758        -0.158570        -0.636641
 O         3.475169         0.653756        -1.565621
 C         2.771050        -1.680479        -0.336419
 H        -0.056349         1.302764        -1.155499
 H        -0.714802        -0.128856        -0.377162
 H        -0.456150         1.275312         0.703472
 H         1.196953        -2.123937         1.226458
 H         1.910540        -0.182590         2.678857
 H         3.592682        -0.669212         2.293307
 H         3.585837         2.159512         0.210398
 H         3.126432         0.223559        -2.304471
 H         2.255633        -2.351461        -1.111130
 H         3.735136        -2.124030        -0.234287
