19
Iteration:  2380charge 0 multiplicity 1
 C         0.151821         0.636779        -0.370597
 C         1.363227         0.066433         0.200259
 C         1.888872        -1.228715         1.006355
 C         2.777410        -0.333795         1.974345
 C         2.623562         0.713120         0.844845
 O         3.128100         1.981332         0.700202
 C         2.658859        -0.144757        -0.586187
 O         3.245978         0.574502        -1.652969
 C         2.604318        -1.644279        -0.229108
 H        -0.294092         1.463278         0.281053
 H         0.533156         1.089640        -1.355105
 H        -0.631005        -0.119566        -0.374969
 H         1.205911        -1.820028         1.555374
 H         2.174224        -0.155463         2.944574
 H         3.722249        -0.807822         2.271963
 H         3.236364         2.024608        -0.344251
 H         3.025463         0.322330        -2.561076
 H         1.979264        -2.097633        -1.008171
 H         3.575049        -2.250784        -0.148105
