19
Iteration:   244charge 0 multiplicity 1
 C         0.194081         0.568642        -0.412809
 C         1.478050         0.037704        -0.062923
 C         1.851545        -1.439717         0.389514
 C         2.492931        -0.857172         1.748508
 C         2.480881         0.500452         0.929996
 O         2.667904         1.757259         1.452309
 C         2.902064         0.114850        -0.552878
 O         3.441974         1.264945        -1.234843
 C         3.027905        -1.439651        -0.654321
 H        -0.540409         0.526495         0.351843
 H         0.192735         1.573188        -0.845495
 H        -0.166966        -0.198358        -1.226416
 H         0.997501        -2.110536         0.487206
 H         1.753049        -0.855320         2.576901
 H         3.515189        -1.387312         1.860213
 H         3.222142         2.052449         0.787358
 H         2.744719         1.290330        -2.022308
 H         2.784878        -1.770874        -1.690832
 H         3.934989        -1.966867        -0.256889
