19
Iteration:  1404charge 0 multiplicity 1
 C         0.038232         0.684013        -0.342374
 C         1.333390        -0.049085         0.121633
 C         1.842343        -1.348731         0.745896
 C         2.629238        -0.499759         1.864059
 C         2.588710         0.524735         0.838594
 O         2.917003         1.857232         1.021979
 C         2.722523         0.034238        -0.531413
 O         3.457994         0.788035        -1.471379
 C         2.873863        -1.493887        -0.488799
 H        -0.835950         0.076411        -0.241585
 H        -0.148523         1.546888         0.240836
 H         0.075207         1.135675        -1.382340
 H         1.196538        -2.218809         1.063123
 H         1.961192        -0.217908         2.685933
 H         3.749235        -0.668311         2.128843
 H         3.689718         2.012634         0.355635
 H         2.873667         0.712335        -2.357246
 H         2.582674        -1.844165        -1.415572
 H         3.842145        -1.764565        -0.271723
