19
Iteration:  1515
 C         0.166202         0.633212        -0.358055
 C         1.411141         0.050579         0.101407
 C         1.739439        -1.351037         0.794820
 C         2.663043        -0.600634         1.837149
 C         2.612745         0.582419         0.816878
 O         2.898639         1.976457         1.029137
 C         2.820861        -0.041615        -0.530413
 O         3.362614         0.805609        -1.553100
 C         2.763268        -1.525437        -0.392996
 H         0.060544         0.657699        -1.449348
 H        -0.577872         0.054487         0.086794
 H        -0.003483         1.648184         0.111012
 H         1.155053        -2.183128         1.107661
 H         2.163857        -0.222967         2.689274
 H         3.727559        -1.075787         2.005475
 H         3.568679         2.110125         0.383745
 H         2.757911         0.822939        -2.297135
 H         2.478916        -1.970410        -1.375942
 H         3.691890        -2.002667        -0.001259
