19
Iteration:  4215
 C         0.203229         0.770097        -0.217288
 C         1.487824         0.101224         0.182587
 C         1.732974        -1.114655         0.994760
 C         2.653405        -0.264025         1.910454
 C         2.767220         0.609475         0.743479
 O         3.037414         2.057615         0.641446
 C         2.687540        -0.272401        -0.604757
 O         3.185072         0.353736        -1.752613
 C         2.765670        -1.717632        -0.141823
 H         0.144810         1.440295        -1.098306
 H        -0.694779         0.094886        -0.353663
 H         0.020426         1.492991         0.595990
 H         0.828029        -1.542297         1.501878
 H         2.044593         0.223621         2.641235
 H         3.533519        -0.705141         2.292374
 H         4.009876         2.106823         0.791294
 H         2.504544         0.816298        -2.365079
 H         2.127306        -2.416535        -0.765670
 H         3.676288        -2.132547         0.207887
