19
Iteration:  4252
 C         0.100705         0.751953        -0.310074
 C         1.340814         0.087567         0.242793
 C         1.833535        -1.152698         1.062124
 C         2.647981        -0.246895         1.936230
 C         2.697021         0.718957         0.748371
 O         3.187094         1.961436         0.632478
 C         2.688727        -0.173423        -0.506074
 O         3.234113         0.309417        -1.777735
 C         2.710080        -1.657369        -0.194466
 H         0.358919         1.829990        -0.506411
 H        -0.461487         0.350183        -1.132204
 H        -0.531821         0.637468         0.605506
 H         1.076926        -1.801920         1.503863
 H         2.107320         0.053369         2.919325
 H         3.644035        -0.595041         2.440851
 H         3.785188         2.014501        -0.124438
 H         2.489041         0.778437        -2.070624
 H         2.181200        -2.114914        -0.973623
 H         3.715477        -2.117481        -0.001731
