19
Iteration:  2798charge 0 multiplicity 1
 C         0.105342         0.773178        -0.303015
 C         1.422069         0.038801         0.098953
 C         1.798215        -1.099835         1.051241
 C         2.789709        -0.364282         1.885494
 C         2.744915         0.632504         0.731504
 O         3.013062         1.953165         0.716657
 C         2.726347        -0.205254        -0.545813
 O         3.198512         0.499495        -1.639856
 C         2.666178        -1.619160        -0.168775
 H        -0.781209         0.150420        -0.190120
 H         0.103723         1.753747         0.220852
 H         0.199383         1.027766        -1.320709
 H         1.092121        -1.776493         1.554060
 H         2.499876        -0.185780         2.951868
 H         3.861048        -0.842767         1.907458
 H         3.406393         2.057281        -0.225473
 H         2.816349         0.404987        -2.453737
 H         2.162707        -2.213051        -0.897399
 H         3.544703        -2.176176         0.321474
