19
Iteration:  4076
 C        -0.020119         0.671042        -0.327307
 C         1.272238         0.084341         0.138461
 C         1.767316        -1.122080         0.964415
 C         2.701720        -0.360584         1.992297
 C         2.615474         0.661358         0.778554
 O         3.348608         1.922118         0.673518
 C         2.672088        -0.099103        -0.509844
 O         3.239725         0.530028        -1.684793
 C         2.774973        -1.587401        -0.190165
 H        -0.789038         0.031568         0.209671
 H        -0.156084         1.672455        -0.025561
 H        -0.076389         0.526631        -1.462808
 H         0.911952        -1.617720         1.422834
 H         2.109611         0.073903         2.855562
 H         3.684263        -0.840956         2.298323
 H         3.899223         1.825276        -0.127073
 H         2.957382        -0.103144        -2.321313
 H         2.336922        -2.220505        -0.966005
 H         3.636475        -2.231154         0.228916
