19
Iteration:  1974charge 0 multiplicity 1
 C         0.070074         0.634592        -0.295576
 C         1.405862         0.098269         0.128399
 C         1.860353        -1.211605         0.883172
 C         2.678833        -0.443443         1.830612
 C         2.642535         0.678347         0.804858
 O         3.028626         1.983558         0.853828
 C         2.762368        -0.135163        -0.536727
 O         3.352497         0.634161        -1.563046
 C         2.727511        -1.626089        -0.308052
 H        -0.184388         1.631784         0.160184
 H        -0.100065         0.575523        -1.364838
 H        -0.816305        -0.019693         0.023617
 H         0.986592        -1.905372         1.061541
 H         2.145031        -0.293880         2.836800
 H         3.573673        -1.045212         1.934189
 H         3.416780         2.214652        -0.040383
 H         2.804574         0.815684        -2.256041
 H         2.029866        -2.241309        -1.016291
 H         3.612059        -2.233278         0.027320
