19
Iteration:   928
 C         0.028735         0.741266        -0.412307
 C         1.416002         0.081940         0.042414
 C         1.827672        -1.411427         0.587625
 C         2.604245        -0.748565         1.841993
 C         2.602508         0.471954         0.896778
 O         2.784768         1.966854         1.239041
 C         2.816390        -0.027893        -0.568792
 O         3.387813         0.885004        -1.491836
 C         3.034254        -1.460611        -0.453308
 H        -0.850393        -0.002445        -0.374050
 H        -0.302513         1.522549         0.354037
 H         0.153807         1.148989        -1.397068
 H         1.206649        -2.298274         0.761841
 H         2.163789        -0.392340         2.862721
 H         3.591447        -1.222595         2.060542
 H         3.220640         2.333294         0.379094
 H         2.813676         0.663683        -2.350538
 H         2.615010        -1.915941        -1.467385
 H         3.994021        -1.904868         0.111299
