19
Iteration:  2514charge 0 multiplicity 1
 C         0.057074         0.733060        -0.158736
 C         1.312064         0.097141         0.212813
 C         1.728795        -1.180717         1.056283
 C         2.760224        -0.391670         1.846691
 C         2.735764         0.631998         0.654998
 O         3.051742         2.031821         0.593258
 C         2.666430        -0.157916        -0.549062
 O         3.372029         0.461589        -1.560359
 C         2.760346        -1.636581        -0.229525
 H        -0.871066         0.088802        -0.175861
 H        -0.272665         1.571671         0.527749
 H         0.128597         1.034553        -1.210787
 H         0.987917        -1.915221         1.525254
 H         2.351079         0.152548         2.767124
 H         3.702662        -0.761456         1.964559
 H         3.335521         2.119148        -0.391977
 H         3.090635         0.317399        -2.455222
 H         2.143782        -2.171419        -1.076159
 H         3.705808        -2.160395         0.091007
