19
Iteration:  3933
 C         0.111205         0.759991        -0.154204
 C         1.456476         0.082537         0.109515
 C         1.740942        -1.207344         0.935573
 C         2.620049        -0.379979         1.907997
 C         2.738971         0.647495         0.777139
 O         3.031459         2.043022         0.710010
 C         2.725210        -0.126697        -0.601611
 O         3.313230         0.402044        -1.634311
 C         2.741781        -1.638703        -0.265998
 H         0.332238         1.736151        -0.644460
 H        -0.513205         0.225166        -0.869631
 H        -0.596529         0.815495         0.773133
 H         1.052413        -1.934373         1.343841
 H         1.986979         0.040679         2.678197
 H         3.556029        -0.738648         2.234944
 H         3.806008         2.377287         0.243953
 H         2.585816         0.288544        -2.394725
 H         2.230935        -2.193442        -1.033478
 H         3.759223        -2.074120         0.044649
