19
Iteration:  3861
 C         0.038454         0.660468        -0.271600
 C         1.354690         0.103300         0.152472
 C         1.762455        -1.168279         0.900633
 C         2.622171        -0.292359         1.952501
 C         2.649323         0.640872         0.840642
 O         3.231031         1.952078         0.767931
 C         2.786083        -0.147658        -0.584882
 O         3.270710         0.589727        -1.672114
 C         2.717819        -1.662386        -0.255996
 H        -0.237882         0.778687        -1.322929
 H        -0.754156         0.042802         0.230583
 H        -0.104649         1.562646         0.236353
 H         1.075302        -1.941939         1.232256
 H         2.010158         0.046624         2.834850
 H         3.531337        -0.971959         2.225868
 H         3.591969         1.909151        -0.131859
 H         3.216853        -0.115733        -2.439612
 H         2.166063        -2.170397        -1.125717
 H         3.638527        -2.092882         0.015097
