19
Iteration:  1254charge 0 multiplicity 1
 C         0.164673         0.604927        -0.397285
 C         1.386717        -0.042990         0.111132
 C         1.885149        -1.369442         0.657936
 C         2.662737        -0.548348         1.894399
 C         2.569621         0.592034         0.888506
 O         2.936043         1.935669         1.127848
 C         2.784086         0.041988        -0.521467
 O         3.353169         0.797268        -1.450385
 C         2.774507        -1.474666        -0.584016
 H        -0.202011         1.556292         0.091988
 H         0.368350         1.012589        -1.413597
 H        -0.715373         0.034191        -0.302865
 H         1.245175        -2.244093         0.849562
 H         1.899714        -0.394565         2.662063
 H         3.516630        -0.859053         2.439845
 H         3.059512         2.351897         0.271834
 H         2.865213         0.641218        -2.198640
 H         2.234009        -2.055483        -1.389850
 H         3.702814        -2.092198        -0.330800
