19
Iteration:   170
 C         0.104423         0.579341        -0.375550
 C         1.462538         0.046585        -0.058636
 C         1.794903        -1.415703         0.364370
 C         2.469526        -0.916527         1.641612
 C         2.567980         0.498969         0.870311
 O         2.605004         1.731512         1.466311
 C         2.958039         0.135139        -0.534440
 O         3.410124         1.239767        -1.206550
 C         3.114139        -1.383937        -0.653756
 H         0.209561         1.667490        -0.322064
 H        -0.473963         0.331719        -1.283033
 H        -0.621030         0.179672         0.402117
 H         1.119257        -2.447292         0.369903
 H         1.780070        -0.758422         2.523430
 H         3.396023        -1.351229         2.018490
 H         3.395856         2.144352         1.178024
 H         3.604640         1.167888        -2.109030
 H         2.937111        -1.919269        -1.610372
 H         4.068913        -1.753543        -0.254151
