19
Iteration:  2082
 C         0.121638         0.685390        -0.287287
 C         1.387790         0.073795         0.211703
 C         1.803803        -1.283774         0.868729
 C         2.711423        -0.341630         1.935135
 C         2.658682         0.652789         0.817290
 O         2.977054         1.979384         0.789743
 C         2.751501        -0.167218        -0.523735
 O         3.329598         0.596693        -1.634573
 C         2.760694        -1.636391        -0.361142
 H        -0.892494         0.232309        -0.015906
 H         0.286696         1.726993         0.191515
 H         0.114278         0.919036        -1.361128
 H         1.244765        -2.190209         1.204067
 H         2.010294        -0.148225         2.857990
 H         3.609380        -0.818051         2.443207
 H         3.355143         2.251520        -0.123177
 H         2.667871         0.766519        -2.228955
 H         2.020739        -2.161603        -1.012508
 H         3.661322        -2.276026        -0.271558
