19
Iteration:    72charge 0 multiplicity 1
 C         0.146212         0.516025        -0.533574
 C         1.432794         0.016657         0.015264
 C         1.950249        -1.444529         0.298471
 C         2.462118        -0.908807         1.681902
 C         2.542635         0.457034         0.984833
 O         2.737719         1.697468         1.610983
 C         2.876316         0.177762        -0.499741
 O         3.387601         1.268518        -1.219322
 C         3.009576        -1.280289        -0.728326
 H        -0.159168        -0.152171        -1.419336
 H        -0.704727         0.655835         0.198323
 H         0.216985         1.566372        -0.989364
 H         1.281485        -2.403883         0.314228
 H         1.559671        -0.903343         2.345249
 H         3.239752        -1.392887         2.264171
 H         2.981864         2.242540         0.911876
 H         3.087812         1.153982        -2.112562
 H         2.702625        -1.526421        -1.799506
 H         4.076462        -1.775325        -0.475410
