19
Iteration:  4582charge 0 multiplicity 1
 C         0.232196         0.861372        -0.286878
 C         1.400912         0.165349         0.269607
 C         1.709480        -1.145012         1.095024
 C         2.844692        -0.194589         1.969701
 C         2.751564         0.698813         0.677168
 O         3.172224         2.009875         0.553040
 C         2.726273        -0.278298        -0.533970
 O         3.009367         0.168193        -1.869435
 C         2.612198        -1.734803         0.007154
 H         0.240744         1.991726        -0.446723
 H        -0.132081         0.592700        -1.311556
 H        -0.638258         0.641557         0.379911
 H         0.992580        -1.701978         1.700141
 H         2.481211         0.374296         2.830368
 H         3.800902        -0.617938         2.107283
 H         2.823850         2.506811        -0.169026
 H         3.852310         0.794209        -1.866482
 H         2.063944        -2.349266        -0.745878
 H         3.603390        -2.257837         0.290558
