19
Iteration:  2206charge 0 multiplicity 1
 C         0.045947         0.654299        -0.320977
 C         1.356021         0.056404         0.128166
 C         1.793605        -1.139175         0.898075
 C         2.699806        -0.398360         1.886872
 C         2.706591         0.619801         0.760608
 O         3.065940         1.942523         0.819041
 C         2.805222        -0.114069        -0.491893
 O         3.277660         0.554024        -1.671402
 C         2.731966        -1.583957        -0.202041
 H        -0.068849         0.746431        -1.442802
 H        -0.772519         0.135628         0.151575
 H        -0.059934         1.599815         0.235237
 H         1.227590        -1.917468         1.352529
 H         2.151187         0.021602         2.772534
 H         3.671869        -0.839854         2.091877
 H         3.502704         2.103824        -0.083537
 H         2.521250         0.559900        -2.262010
 H         2.285335        -2.169495        -1.061794
 H         3.704616        -2.010109         0.071912
