19
Iteration:  2736charge 0 multiplicity 1
 C         0.057230         0.682045        -0.054471
 C         1.367569         0.082623         0.081205
 C         1.705151        -1.198349         1.012806
 C         2.572012        -0.234381         1.852663
 C         2.786480         0.648779         0.706181
 O         3.148144         1.983271         0.721642
 C         2.792334        -0.152707        -0.593329
 O         3.276465         0.422374        -1.805235
 C         2.769884        -1.616689        -0.122523
 H        -0.635113         0.195511        -0.752165
 H        -0.499108         0.761366         0.889597
 H         0.116717         1.804612        -0.347108
 H         0.867707        -1.959909         1.337162
 H         1.993915         0.161402         2.740779
 H         3.446739        -0.651398         2.281405
 H         3.713947         2.213192        -0.041119
 H         2.818985         0.096606        -2.512172
 H         2.457813        -2.237398        -1.033280
 H         3.650331        -2.097521         0.266969
