19
Iteration:  4733
 C         0.129811         0.722499        -0.282629
 C         1.347320         0.214431         0.264779
 C         1.697245        -1.024569         1.220598
 C         2.819203        -0.195116         1.896098
 C         2.721989         0.708787         0.681964
 O         3.367183         1.875879         0.239872
 C         2.664090        -0.221006        -0.472118
 O         3.083008         0.192957        -1.798802
 C         2.571391        -1.674226         0.063141
 H        -0.465708        -0.076631        -0.855706
 H        -0.505350         1.099353         0.486138
 H         0.142615         1.634989        -0.900110
 H         1.065895        -1.616771         1.931446
 H         2.501858         0.229184         2.953497
 H         3.847122        -0.649685         2.090442
 H         3.125427         2.614663         0.784246
 H         3.482290         1.011561        -1.712235
 H         2.030478        -2.244149        -0.627383
 H         3.488194        -2.176725         0.394391
