19
Iteration:  4625
 C         0.175717         0.845058        -0.176061
 C         1.425741         0.078098         0.217140
 C         1.786199        -1.121383         1.199453
 C         2.704427        -0.080625         1.933928
 C         2.728785         0.652323         0.697007
 O         3.250875         1.977089         0.527090
 C         2.746512        -0.245865        -0.574668
 O         3.011714         0.191438        -1.877497
 C         2.641075        -1.695488        -0.074194
 H         0.090557         1.865322         0.377293
 H         0.445325         1.341665        -1.111028
 H        -0.739922         0.235794        -0.275426
 H         1.035322        -1.849245         1.534509
 H         2.019471         0.495862         2.644986
 H         3.663552        -0.427062         2.290373
 H         2.588037         2.409066        -0.028392
 H         3.910235        -0.074810        -2.073387
 H         2.038760        -2.369867        -0.661823
 H         3.572101        -2.207463         0.315845
