19
Iteration:  3398charge 0 multiplicity 1
 C         0.170810         0.760244        -0.412102
 C         1.455004         0.092207         0.130269
 C         1.825937        -1.284984         0.870908
 C         2.681380        -0.506292         1.958703
 C         2.746489         0.627992         0.858581
 O         2.953816         1.996647         0.895056
 C         2.719578        -0.130634        -0.563179
 O         3.232384         0.610631        -1.627251
 C         2.779700        -1.639557        -0.286602
 H         0.366303         1.788938        -0.783896
 H        -0.263004         0.217380        -1.303649
 H        -0.654044         0.829555         0.379111
 H         0.952748        -1.917046         1.292147
 H         2.127141        -0.262781         2.833795
 H         3.652039        -1.011372         2.059588
 H         3.238059         2.336345         0.047219
 H         2.505240         0.870538        -2.203796
 H         2.243699        -2.105716        -1.178706
 H         3.636771        -2.176406        -0.005515
