19
Iteration:  2028charge 0 multiplicity 1
 C         0.062010         0.744525        -0.232742
 C         1.375128         0.045370         0.034261
 C         1.845285        -1.336902         0.923723
 C         2.623953        -0.332187         1.857260
 C         2.592577         0.663933         0.754172
 O         3.092592         1.935359         0.969671
 C         2.682114        -0.158046        -0.630877
 O         3.250974         0.598884        -1.692658
 C         2.886930        -1.587306        -0.252603
 H        -0.406562         1.037452         0.744652
 H         0.252390         1.738925        -0.670375
 H        -0.567469         0.114699        -0.889362
 H         1.099535        -2.084711         1.300124
 H         1.838739        -0.090902         2.639154
 H         3.492060        -0.630089         2.303405
 H         3.825376         2.117871         0.321083
 H         3.098002         0.236058        -2.516449
 H         2.479057        -2.234551        -1.100083
 H         3.900620        -1.910807         0.089912
