19
Iteration:  3769charge 0 multiplicity 1
 C         0.196347         0.683057        -0.334396
 C         1.442580         0.142498         0.175700
 C         1.746304        -1.164914         0.861436
 C         2.718670        -0.391777         1.941686
 C         2.712021         0.703593         0.840889
 O         3.044729         1.989165         0.930069
 C         2.749770        -0.206066        -0.596016
 O         3.242981         0.474110        -1.720221
 C         2.687198        -1.646174        -0.319159
 H        -0.519291        -0.142359        -0.308177
 H        -0.202304         1.419606         0.321772
 H         0.099016         1.153699        -1.374540
 H         0.942132        -1.841827         1.302961
 H         2.167004        -0.033099         2.867946
 H         3.646872        -0.929096         2.276361
 H         3.122307         2.402674         0.113716
 H         2.648922         0.638908        -2.421364
 H         2.147669        -2.218800        -1.011382
 H         3.642857        -1.992430         0.127375
