19
Iteration:  1239charge 0 multiplicity 1
 C         0.047761         0.657834        -0.444511
 C         1.371991         0.084463         0.126850
 C         1.830118        -1.377700         0.708477
 C         2.630177        -0.599144         1.849326
 C         2.628706         0.565630         0.887611
 O         2.919340         1.887542         1.100162
 C         2.794075        -0.047362        -0.463794
 O         3.358197         0.867343        -1.488046
 C         2.897510        -1.506748        -0.471988
 H        -0.158078         1.541548         0.118424
 H         0.059390         0.849684        -1.485311
 H        -0.796622        -0.122891        -0.263414
 H         1.119263        -2.189298         1.051195
 H         2.131402        -0.433061         2.778238
 H         3.645503        -0.971170         1.965281
 H         3.127654         2.207608         0.228888
 H         3.077356         0.632601        -2.408038
 H         2.356068        -1.615517        -1.408618
 H         3.920932        -1.980957        -0.561043
