19
Iteration:  3629
 C         0.089175         0.700249        -0.322611
 C         1.381444         0.070980         0.144459
 C         1.745932        -1.240780         0.859833
 C         2.670332        -0.428891         1.796239
 C         2.744197         0.658764         0.780531
 O         3.025348         1.977390         0.999645
 C         2.761540        -0.029377        -0.567014
 O         3.321431         0.471499        -1.692464
 C         2.715007        -1.565882        -0.230004
 H        -0.221612         1.607606         0.288710
 H         0.183399         0.937142        -1.412521
 H        -0.706704        -0.050744        -0.227878
 H         1.020184        -1.978641         1.249250
 H         2.159205        -0.064721         2.701113
 H         3.651183        -0.970320         1.988282
 H         3.863552         2.207869         0.430918
 H         2.535005         0.527391        -2.393408
 H         2.344694        -2.169881        -1.152248
 H         3.659631        -1.894479         0.172806
