19
Iteration:  1288charge 0 multiplicity 1
 C         0.053703         0.687232        -0.400102
 C         1.419686         0.034413        -0.014590
 C         1.815005        -1.284704         0.697823
 C         2.650345        -0.622584         1.912919
 C         2.673502         0.532324         0.823163
 O         2.876169         1.865755         1.158045
 C         2.846337        -0.049223        -0.510532
 O         3.287088         0.874911        -1.551571
 C         2.893060        -1.547525        -0.403980
 H        -0.331847         1.277445         0.478695
 H         0.134474         1.289260        -1.346280
 H        -0.601665        -0.076673        -0.697109
 H         1.104877        -2.058986         0.862412
 H         2.118876        -0.136299         2.704368
 H         3.562337        -1.021092         2.243565
 H         3.606047         2.246975         0.550605
 H         2.589468         0.911218        -2.336386
 H         2.462586        -2.018187        -1.348489
 H         3.848822        -1.947211         0.033712
