19
Iteration:  3516
 C         0.095652         0.698173        -0.250495
 C         1.347840         0.026647         0.117030
 C         1.804192        -1.262267         0.852553
 C         2.692878        -0.379095         1.870802
 C         2.624417         0.632671         0.783312
 O         3.009798         1.936503         0.870473
 C         2.688369        -0.099086        -0.577216
 O         3.424251         0.555543        -1.519571
 C         2.761314        -1.575303        -0.355371
 H         0.311521         1.493141        -0.935413
 H        -0.720680         0.175416        -0.723865
 H        -0.369573         1.215942         0.632063
 H         1.023914        -2.035896         1.174874
 H         1.977380        -0.026908         2.647150
 H         3.694912        -0.786303         2.098968
 H         3.154212         2.132373        -0.022502
 H         3.094608         0.862825        -2.330784
 H         2.287275        -2.052219        -1.257465
 H         3.757468        -2.042678        -0.083918
