19
Iteration:  3969
 C         0.196577         0.817775        -0.254171
 C         1.414788         0.079275         0.051033
 C         1.843418        -1.293784         0.993012
 C         2.645858        -0.270520         1.917171
 C         2.662215         0.594683         0.743175
 O         3.049958         1.917414         0.715661
 C         2.684962        -0.233435        -0.565776
 O         3.152586         0.613669        -1.731074
 C         2.750937        -1.648524        -0.100718
 H         0.345141         1.890176         0.101825
 H         0.156585         0.892641        -1.395708
 H        -0.819418         0.648521         0.189024
 H         1.117386        -1.841435         1.564761
 H         2.100970        -0.044144         2.832435
 H         3.621797        -0.633170         2.216830
 H         4.007483         1.777780         0.813057
 H         2.906208        -0.107953        -2.455381
 H         2.466758        -2.312404        -1.033524
 H         3.789214        -1.998408         0.091896
