19
Iteration:  1300
 C         0.116003         0.646909        -0.374432
 C         1.397796         0.065885         0.025788
 C         1.775868        -1.304740         0.700476
 C         2.635682        -0.617616         1.752638
 C         2.589282         0.571814         0.868130
 O         2.921534         1.848793         1.129373
 C         2.784970         0.034420        -0.588196
 O         3.282107         0.815759        -1.546473
 C         2.965702        -1.494270        -0.300911
 H        -0.428456         1.110581         0.513742
 H         0.249228         1.566018        -1.041811
 H        -0.574040        -0.054840        -0.723343
 H         1.018821        -1.951476         1.008171
 H         1.926257        -0.547306         2.614603
 H         3.507200        -1.125364         2.113074
 H         3.714594         2.072784         0.685031
 H         2.654649         0.745129        -2.191600
 H         2.880905        -2.067950        -1.276809
 H         3.932577        -1.889754         0.070954
