19
Iteration:  4271
 C         0.040607         0.744545        -0.289201
 C         1.360402         0.136013         0.164607
 C         1.781606        -1.162393         1.009979
 C         2.766206        -0.258272         1.848615
 C         2.648267         0.642099         0.760719
 O         3.289832         2.015201         0.688474
 C         2.586637        -0.233366        -0.622215
 O         3.236054         0.343010        -1.639274
 C         2.713258        -1.619308        -0.090778
 H         0.061777         1.862720        -0.260038
 H        -0.102062         0.363177        -1.277330
 H        -0.861811         0.355138         0.291037
 H         1.008473        -1.834180         1.472389
 H         2.395005         0.296275         2.730739
 H         3.770338        -0.555803         2.061645
 H         3.319403         2.100731        -0.258279
 H         2.694090         0.473340        -2.351178
 H         2.235266        -2.382951        -0.693166
 H         3.635084        -2.091853         0.207576
