19
Iteration:  2177
 C         0.070315         0.593752        -0.286791
 C         1.411644         0.095208         0.134467
 C         1.789353        -1.193768         0.901040
 C         2.531192        -0.271748         1.959050
 C         2.685180         0.651170         0.790702
 O         3.204227         1.999107         0.928572
 C         2.737764        -0.205607        -0.629197
 O         3.252643         0.616040        -1.717533
 C         2.770423        -1.704471        -0.302151
 H        -0.259812         0.230322        -1.244174
 H        -0.510727         0.308223         0.621722
 H        -0.078337         1.761288        -0.119518
 H         1.193891        -2.082727         1.328021
 H         1.952267         0.162612         2.705249
 H         3.507374        -0.596690         2.313479
 H         3.362473         2.201870         0.039962
 H         2.660681         0.295048        -2.555573
 H         2.388933        -2.397801        -1.101485
 H         3.855962        -1.980492        -0.075945
