19
Iteration:   781
 C         0.054086         0.596838        -0.449813
 C         1.446524         0.104445         0.061168
 C         1.818349        -1.393344         0.628423
 C         2.520540        -0.754108         1.812066
 C         2.639015         0.525800         0.940451
 O         2.858177         1.882784         1.229138
 C         2.857242         0.061143        -0.515175
 O         3.375116         0.993227        -1.474517
 C         2.943606        -1.452713        -0.503389
 H        -0.379431         1.369835         0.098047
 H         0.044953         0.729226        -1.494082
 H        -0.595719        -0.278818        -0.217512
 H         1.040154        -2.217327         0.679365
 H         1.921050        -0.620121         2.693173
 H         3.358781        -1.275560         2.161235
 H         3.413476         2.244251         0.424667
 H         2.820022         0.936118        -2.279129
 H         2.669282        -1.889699        -1.469171
 H         3.950953        -1.942527        -0.242443
