19
Iteration:  3827
 C         0.122494         0.714116        -0.390750
 C         1.404170         0.127288         0.261775
 C         1.770044        -1.224613         0.904433
 C         2.610572        -0.356430         1.893313
 C         2.666980         0.650711         0.783066
 O         3.221395         1.917010         0.762552
 C         2.637137        -0.190319        -0.517181
 O         3.123180         0.649596        -1.628724
 C         2.789044        -1.631636        -0.232694
 H        -0.066075         0.320114        -1.402638
 H        -0.733266         0.402793         0.227877
 H         0.287292         1.753056        -0.466886
 H         1.202350        -1.989767         1.363782
 H         2.102543         0.090717         2.791489
 H         3.538219        -0.951827         2.345935
 H         3.954339         1.973429         0.052710
 H         3.305976         0.081097        -2.497084
 H         2.470087        -2.487092        -0.919047
 H         3.739294        -2.004888         0.034417
