19
Iteration:  2017
 C         0.070965         0.681482        -0.232169
 C         1.361785         0.136836         0.084557
 C         1.887831        -1.188964         0.837663
 C         2.575770        -0.422971         1.919853
 C         2.623869         0.586814         0.728133
 O         3.067259         1.942329         0.953419
 C         2.734008        -0.117975        -0.606412
 O         3.258195         0.581181        -1.661817
 C         2.873997        -1.581189        -0.269037
 H        -0.335927         1.180587         0.689390
 H         0.232399         1.389731        -1.067002
 H        -0.823352         0.120548        -0.625000
 H         1.434831        -2.101157         1.321727
 H         1.838818         0.047744         2.658763
 H         3.416065        -0.736030         2.345188
 H         3.744750         2.111079         0.154766
 H         3.013056         0.117727        -2.452752
 H         2.158432        -2.263365        -0.892811
 H         3.902490        -2.053739        -0.253717
