19
Iteration:  4545
 C        -0.009763         0.784349        -0.346333
 C         1.362851         0.203374         0.251613
 C         1.797182        -1.134936         1.112640
 C         2.852108        -0.092592         1.903123
 C         2.690485         0.728120         0.679730
 O         3.368956         1.968526         0.637653
 C         2.592259        -0.284930        -0.562937
 O         3.087065         0.172617        -1.803427
 C         2.640439        -1.729026        -0.097071
 H         0.252127         1.529762        -1.137310
 H        -0.541073        -0.061556        -0.603058
 H        -0.486789         1.372140         0.465563
 H         1.073495        -1.800346         1.607663
 H         2.305328         0.259865         2.817849
 H         3.772961        -0.614583         2.283085
 H         2.890707         2.652094         0.124187
 H         3.975379         0.595696        -1.514404
 H         2.089009        -2.383948        -0.746807
 H         3.592834        -2.198522         0.143891
