19
Iteration:  3496
 C         0.007952         0.732223        -0.172749
 C         1.377080         0.151196         0.083225
 C         1.839057        -1.256722         0.859239
 C         2.581389        -0.431342         1.906722
 C         2.646452         0.641160         0.717330
 O         2.998944         1.964199         0.898271
 C         2.741143        -0.154550        -0.635414
 O         3.473547         0.659686        -1.572515
 C         2.772383        -1.682390        -0.320025
 H        -0.088501         1.282524        -1.123019
 H        -0.729787        -0.104278        -0.354647
 H        -0.463042         1.308249         0.710701
 H         1.197306        -2.170346         1.209058
 H         1.870208        -0.220949         2.634448
 H         3.570165        -0.671872         2.170471
 H         3.671827         2.154245         0.198824
 H         3.156808         0.182392        -2.431899
 H         2.242479        -2.290257        -1.158292
 H         3.759705        -2.124287        -0.230153
