19
Iteration:  1388
 C         0.002573         0.703633        -0.324450
 C         1.356639         0.142771         0.056505
 C         1.843221        -1.384881         0.706800
 C         2.709289        -0.595946         1.817337
 C         2.527531         0.609280         0.814486
 O         2.894883         1.909695         1.038734
 C         2.800911        -0.051287        -0.550218
 O         3.442313         0.761592        -1.436929
 C         2.903280        -1.510566        -0.398336
 H        -0.758396        -0.096679        -0.091445
 H        -0.277855         1.650532         0.266778
 H        -0.026250         0.850229        -1.389834
 H         1.136572        -2.158943         0.897361
 H         2.206629        -0.456547         2.801008
 H         3.604851        -1.083391         2.045095
 H         3.204212         2.235634         0.148532
 H         2.927808         0.900810        -2.300369
 H         2.315788        -2.098849        -1.220423
 H         3.880493        -2.118213        -0.145121
