19
Iteration:   196
 C         0.033513         0.624142        -0.364235
 C         1.364947         0.013477        -0.065594
 C         1.955079        -1.465758         0.390223
 C         2.493098        -0.820814         1.686993
 C         2.401433         0.490758         0.884152
 O         2.627566         1.674591         1.527334
 C         2.861532         0.171970        -0.565704
 O         3.569877         1.143959        -1.283041
 C         3.116680        -1.322131        -0.650930
 H         0.001821         1.602204         0.256488
 H        -0.093729         0.997700        -1.415106
 H        -0.815978        -0.008013        -0.236849
 H         1.426284        -2.430347         0.464846
 H         1.787130        -0.924385         2.527071
 H         3.505228        -1.062245         1.976226
 H         3.390793         2.019239         0.991250
 H         3.251495         1.238179        -2.130807
 H         2.749216        -1.831565        -1.567551
 H         4.242819        -1.675992        -0.433530
