19
Iteration:   485charge 0 multiplicity 1
 C         0.082966         0.581714        -0.448000
 C         1.402591        -0.021882         0.019268
 C         1.827158        -1.441981         0.396153
 C         2.610145        -0.734229         1.732275
 C         2.520747         0.520923         0.879470
 O         2.757408         1.844662         1.416707
 C         2.812804         0.114135        -0.537597
 O         3.466287         1.043665        -1.365442
 C         2.973941        -1.382977        -0.534438
 H        -0.169898         1.487147         0.035215
 H         0.139614         0.631404        -1.515181
 H        -0.817259        -0.128524        -0.282707
 H         1.166971        -2.403530         0.642091
 H         1.873536        -0.516743         2.550269
 H         3.492805        -1.130153         2.159091
 H         3.772740         1.982758         1.358935
 H         2.869513         1.214706        -2.142433
 H         2.813616        -1.864843        -1.486415
 H         3.838247        -1.788449        -0.113408
