19
Iteration:  2400
 C         0.125601         0.716059        -0.398345
 C         1.353037         0.148787         0.239825
 C         1.822721        -1.217188         1.021947
 C         2.771443        -0.282160         1.881811
 C         2.724198         0.653289         0.701432
 O         3.093908         1.973909         0.771344
 C         2.678515        -0.235987        -0.533465
 O         3.182592         0.514547        -1.558054
 C         2.723653        -1.688769        -0.290161
 H        -0.581194         1.247070         0.334332
 H         0.486572         1.526814        -1.100267
 H        -0.495688        -0.136219        -0.754373
 H         1.238584        -1.987393         1.445012
 H         2.255048         0.202512         2.686925
 H         3.734066        -0.543662         2.131284
 H         3.440864         2.219602        -0.147997
 H         2.533694         0.333679        -2.361257
 H         2.092739        -2.358677        -0.863758
 H         3.808587        -2.134135        -0.160259
