19
Iteration:  3416
 C         0.173057         0.710627        -0.302183
 C         1.451476         0.037714         0.151065
 C         1.750338        -1.261664         0.841485
 C         2.655522        -0.378398         1.792719
 C         2.600201         0.616913         0.763348
 O         2.974570         1.927094         0.975228
 C         2.771589        -0.096686        -0.578863
 O         3.299034         0.561162        -1.630443
 C         2.797991        -1.579980        -0.301883
 H         0.365554         1.654167        -0.839567
 H        -0.472299         0.053111        -0.856430
 H        -0.420718         1.220155         0.498746
 H         1.145776        -2.020482         1.261367
 H         2.120329         0.033994         2.715525
 H         3.551377        -0.791747         2.234147
 H         3.669151         2.150809         0.343337
 H         2.496232         0.739467        -2.114297
 H         2.260879        -2.114180        -1.060557
 H         3.830977        -2.010279         0.006770
