19
Iteration:  2809
 C         0.198976         0.756125        -0.326632
 C         1.437441         0.166063         0.203202
 C         1.777348        -1.203133         1.001134
 C         2.801462        -0.344875         1.874746
 C         2.692381         0.625533         0.786452
 O         3.019770         1.956088         0.682283
 C         2.701468        -0.182364        -0.569756
 O         3.221071         0.550637        -1.655115
 C         2.660436        -1.744196        -0.143516
 H        -0.637668         0.103396        -0.059226
 H        -0.125099         1.749012         0.052695
 H         0.167241         0.823033        -1.390639
 H         0.947508        -1.579683         1.598698
 H         2.445442         0.060193         2.867044
 H         3.876274        -0.777765         1.991043
 H         3.293496         2.144075        -0.201778
 H         2.523537         0.419893        -2.257259
 H         2.097940        -2.296419        -0.880605
 H         3.652407        -2.317327         0.030013
