19
Iteration:  2796charge 0 multiplicity 1
 C         0.105579         0.775574        -0.300983
 C         1.396897         0.034457         0.089753
 C         1.785332        -1.105340         1.059099
 C         2.807799        -0.362535         1.897954
 C         2.737002         0.637230         0.716442
 O         3.019753         1.961082         0.721836
 C         2.736755        -0.205182        -0.543986
 O         3.201118         0.490859        -1.633369
 C         2.673186        -1.608929        -0.167395
 H        -0.845609         0.165640        -0.190406
 H         0.111119         1.733012         0.322705
 H         0.198473         1.028122        -1.347910
 H         1.161491        -1.826788         1.455018
 H         2.442109        -0.170018         2.891438
 H         3.845476        -0.909259         1.915287
 H         3.444332         2.090298        -0.232458
 H         2.813275         0.370782        -2.559767
 H         2.105735        -2.227811        -0.919505
 H         3.602944        -2.153734         0.333229
