19
Iteration:  1371
 C         0.083187         0.617948        -0.288714
 C         1.375100         0.029163         0.049056
 C         1.780171        -1.292134         0.689709
 C         2.618169        -0.615179         1.775735
 C         2.649166         0.619187         0.923456
 O         2.893502         2.002131         1.065063
 C         2.785590        -0.062778        -0.586204
 O         3.458942         0.852165        -1.501490
 C         2.816213        -1.641569        -0.420832
 H        -0.745407         0.029939         0.032832
 H         0.052249         1.518876         0.237668
 H        -0.160850         0.672413        -1.413059
 H         0.963008        -1.976629         1.131858
 H         2.074824        -0.536427         2.747517
 H         3.744808        -0.947052         2.084505
 H         3.077670         2.418503         0.249360
 H         3.093171         0.835462        -2.378898
 H         2.589669        -2.200336        -1.254271
 H         3.709836        -2.016434        -0.058339
