19
Iteration:  3741
 C         0.064121         0.731699        -0.239218
 C         1.339020         0.068923         0.133752
 C         1.786730        -1.283035         0.896133
 C         2.644741        -0.346513         1.844063
 C         2.694313         0.667904         0.749476
 O         3.080784         1.977073         0.926402
 C         2.861947        -0.109339        -0.564932
 O         3.310719         0.505885        -1.744922
 C         2.727640        -1.615591        -0.244417
 H        -0.780800         0.054832         0.088297
 H        -0.195846         1.724385         0.273245
 H        -0.190389         0.900698        -1.274545
 H         1.112566        -2.004916         1.308317
 H         2.029258        -0.012337         2.666405
 H         3.467362        -0.707294         2.493096
 H         3.661965         2.351338         0.280133
 H         2.822548         0.211505        -2.449266
 H         2.105253        -2.087701        -1.121616
 H         3.616966        -2.212172         0.024705
