19
Iteration:  1279
 C         0.099989         0.657941        -0.405855
 C         1.448116         0.049921         0.061548
 C         1.808762        -1.389102         0.736680
 C         2.586670        -0.523944         1.894281
 C         2.688058         0.551248         0.858415
 O         2.875527         1.891557         1.171973
 C         2.838736        -0.011389        -0.625661
 O         3.318143         0.878817        -1.526976
 C         2.883162        -1.570675        -0.460871
 H        -0.390418         1.405191         0.296430
 H         0.209716         1.304279        -1.344186
 H        -0.666944        -0.076484        -0.487044
 H         1.221700        -2.233872         0.905827
 H         1.991248        -0.385371         2.887510
 H         3.570685        -1.032067         2.168401
 H         3.451253         2.315425         0.438742
 H         2.578155         0.862509        -2.281144
 H         2.269309        -2.157435        -1.168906
 H         3.754420        -2.174880        -0.331945
