19
Iteration:  3010
 C         0.163681         0.772974        -0.211654
 C         1.485435         0.114634         0.107367
 C         1.811826        -1.242528         0.905492
 C         2.644097        -0.356646         1.978941
 C         2.660165         0.633967         0.823577
 O         2.961056         2.002908         0.862185
 C         2.766265        -0.115948        -0.581697
 O         3.205149         0.405154        -1.836328
 C         2.818966        -1.588951        -0.244631
 H         0.379763         1.739128        -0.621860
 H        -0.521623         0.256374        -0.861635
 H        -0.249500         1.107544         0.744733
 H         0.905164        -1.849643         1.192483
 H         1.970685         0.061216         2.831810
 H         3.585136        -0.759683         2.420268
 H         3.730064         2.101753         0.335583
 H         2.615413        -0.033899        -2.597665
 H         2.286573        -2.209240        -1.013029
 H         3.759848        -2.239092        -0.085124
