19
Iteration:  4025
 C         0.117958         0.655680        -0.293213
 C         1.414813         0.118229         0.127501
 C         1.784380        -1.145826         0.973853
 C         2.707413        -0.278136         1.930107
 C         2.689636         0.650911         0.811678
 O         3.145426         2.027236         0.908009
 C         2.755136        -0.217654        -0.567882
 O         3.260402         0.387401        -1.807030
 C         2.634505        -1.625052        -0.231481
 H        -0.361493         1.300236         0.464611
 H         0.505682         1.471844        -1.056081
 H        -0.436998        -0.094600        -0.842475
 H         1.127881        -1.881700         1.440340
 H         2.275015         0.064363         2.860611
 H         3.678982        -0.711122         2.115599
 H         3.176612         2.264121        -0.080962
 H         2.348651         0.517726        -2.362760
 H         1.742170        -1.944083        -0.910082
 H         3.539836        -2.209510        -0.155956
