19
Iteration:  1521
 C         0.142867         0.621348        -0.344561
 C         1.447486         0.064550         0.138269
 C         1.741449        -1.311194         0.773486
 C         2.677056        -0.632242         1.836327
 C         2.622335         0.550080         0.834741
 O         2.889744         2.006329         0.989208
 C         2.854761        -0.078205        -0.535772
 O         3.349564         0.858280        -1.553663
 C         2.795802        -1.542336        -0.381786
 H         0.078055         0.714915        -1.438624
 H        -0.804295         0.041094        -0.001665
 H        -0.021894         1.594816         0.170159
 H         0.886945        -2.029364         1.020092
 H         1.982134        -0.439237         2.725393
 H         3.562008        -1.152818         2.023660
 H         3.690178         2.222710         0.361545
 H         2.782336         0.740401        -2.454159
 H         2.325832        -2.135404        -1.237033
 H         3.638208        -2.129395         0.115036
