19
Iteration:  4972charge 0 multiplicity 1
 C         0.120739         0.814055        -0.220708
 C         1.435495         0.236199         0.197729
 C         1.810721        -0.968638         1.270846
 C         2.881107        -0.055324         1.883316
 C         2.814945         0.758135         0.651316
 O         3.260420         2.023152         0.304096
 C         2.604170        -0.357150        -0.544027
 O         3.056074        -0.058957        -1.830622
 C         2.525306        -1.730306         0.187910
 H        -0.213265         0.579271        -1.223349
 H        -0.567250         0.511801         0.560860
 H         0.341924         1.861205        -0.034169
 H         0.977169        -1.381512         1.916097
 H         2.603080         0.489845         2.754611
 H         3.920076        -0.507248         2.093968
 H         3.355079         2.135250        -0.640635
 H         2.188963         0.392496        -2.258055
 H         1.859695        -2.443210        -0.297517
 H         3.492636        -2.131194         0.508530
