19
Iteration:  3265
 C         0.017515         0.634550        -0.171623
 C         1.390447         0.045202         0.072229
 C         1.710620        -1.228883         0.889101
 C         2.632496        -0.384946         1.871489
 C         2.655142         0.624317         0.787758
 O         3.049706         1.909841         0.792456
 C         2.722831        -0.086168        -0.526779
 O         3.425659         0.609206        -1.631131
 C         2.793035        -1.568199        -0.290760
 H        -0.414748         0.884823         0.818089
 H         0.225764         1.660716        -0.560670
 H        -0.638845         0.053553        -0.934522
 H         0.990298        -1.926557         1.292555
 H         2.163689         0.064376         2.793550
 H         3.709047        -0.744037         2.153348
 H         3.748066         2.034076         0.142162
 H         2.887005         0.712737        -2.365495
 H         2.287417        -2.036918        -1.201064
 H         3.700650        -2.125736        -0.203210
