19
Iteration:  1428
 C         0.093832         0.680199        -0.311481
 C         1.461817         0.045961         0.070876
 C         1.888738        -1.362212         0.746275
 C         2.494133        -0.605076         1.872245
 C         2.599133         0.579203         0.838663
 O         2.973902         1.968735         1.066121
 C         2.744610        -0.052786        -0.642402
 O         3.302022         0.866421        -1.521334
 C         2.901272        -1.617893        -0.385723
 H        -0.610119        -0.160275        -0.345161
 H        -0.343854         1.392677         0.367190
 H         0.073503         1.217502        -1.250637
 H         1.133400        -2.144810         0.810862
 H         1.752718        -0.252534         2.549112
 H         3.525963        -0.795416         2.318982
 H         3.768261         2.129968         0.539319
 H         3.138930         0.598966        -2.407434
 H         2.439579        -2.010332        -1.201061
 H         3.830320        -2.025643        -0.254895
