19
Iteration:   788
 C         0.131721         0.517793        -0.412617
 C         1.398540         0.053762         0.064871
 C         1.823163        -1.346761         0.581799
 C         2.560010        -0.719801         1.879853
 C         2.612020         0.512850         0.881676
 O         2.862400         1.886047         1.240512
 C         2.868739         0.087886        -0.536479
 O         3.406269         0.981737        -1.446631
 C         2.880967        -1.412812        -0.529069
 H        -0.308841         1.397724         0.183231
 H         0.016994         0.832804        -1.546069
 H        -0.595179        -0.289755        -0.395668
 H         1.093585        -2.171604         0.679131
 H         1.627864        -0.615725         2.541651
 H         3.591449        -1.192606         2.101256
 H         3.339077         2.142965         0.434040
 H         2.859429         0.866233        -2.156626
 H         2.373295        -1.898995        -1.369775
 H         3.734376        -1.942937        -0.219512
