19
Iteration:  2056
 C         0.075712         0.737404        -0.240229
 C         1.408274         0.088255         0.100065
 C         1.758247        -1.269385         0.891346
 C         2.674705        -0.441009         1.839350
 C         2.654934         0.646547         0.787054
 O         3.016211         1.944381         0.848558
 C         2.739716        -0.155446        -0.593161
 O         3.246898         0.591612        -1.669976
 C         2.897266        -1.559391        -0.192147
 H        -0.738846         0.478595         0.432930
 H         0.290553         1.835759        -0.089023
 H        -0.221119         0.570622        -1.267819
 H         1.014281        -2.003466         1.222142
 H         2.006055        -0.249260         2.657927
 H         3.575832        -0.944161         2.423327
 H         3.575888         2.186804         0.118334
 H         2.787512         0.406369        -2.481247
 H         2.485470        -2.089645        -1.013500
 H         3.834789        -2.015864         0.124069
