19
Iteration:  1061charge 0 multiplicity 1
 C         0.182538         0.608352        -0.393283
 C         1.421145         0.025067        -0.013518
 C         1.792625        -1.402917         0.668532
 C         2.592928        -0.580861         1.828823
 C         2.583212         0.621569         0.851928
 O         2.897170         1.866038         1.226967
 C         2.794146         0.010996        -0.566452
 O         3.338691         0.924541        -1.509896
 C         2.933709        -1.539069        -0.444887
 H         0.010608         0.969681        -1.460067
 H        -0.628115        -0.104339         0.008449
 H        -0.117419         1.471981         0.230258
 H         1.035141        -2.140746         0.866348
 H         1.724126        -0.505629         2.525086
 H         3.430358        -1.079358         2.205060
 H         3.613631         2.158470         0.550811
 H         2.579701         1.060468        -2.239811
 H         2.384182        -2.099213        -1.263227
 H         3.921015        -1.976153         0.034760
