19
Iteration:    97
 C         0.118691         0.577597        -0.530263
 C         1.449538         0.025030        -0.094910
 C         1.826200        -1.378095         0.368862
 C         2.588637        -0.900259         1.653748
 C         2.430232         0.446972         0.942762
 O         2.704639         1.647015         1.595600
 C         2.910808         0.137909        -0.547321
 O         3.443324         1.303884        -1.218416
 C         3.049564        -1.374011        -0.628320
 H        -0.017152         0.376845        -1.694271
 H        -0.675825         0.054077         0.042448
 H        -0.181326         1.596104        -0.304224
 H         1.004197        -2.237979         0.348787
 H         2.135705        -1.023156         2.734854
 H         3.599386        -1.368232         1.737155
 H         2.859911         2.272287         0.875279
 H         2.806579         1.586959        -1.801457
 H         2.901099        -1.799178        -1.658709
 H         4.041653        -1.768910        -0.165684
