19
Iteration:  2039
 C         0.095894         0.773021        -0.215377
 C         1.324920        -0.026858         0.117786
 C         1.839974        -1.282706         0.842917
 C         2.578118        -0.365121         1.862161
 C         2.645996         0.627216         0.732492
 O         3.078104         1.959085         0.931042
 C         2.739794        -0.067793        -0.609810
 O         3.257110         0.608141        -1.678457
 C         2.846118        -1.629624        -0.238205
 H        -0.689687         0.553300         0.587959
 H         0.329664         1.779111        -0.617283
 H        -0.563565         0.364489        -1.059445
 H         1.121236        -2.093055         1.152539
 H         2.219472         0.172516         2.820658
 H         3.549514        -0.664126         2.123114
 H         3.728538         2.091358         0.312053
 H         2.826882         0.081051        -2.428468
 H         2.736708        -2.523147        -0.970900
 H         3.852001        -1.857025         0.227618
