19
Iteration:  3262charge 0 multiplicity 1
 C         0.011311         0.652207        -0.185056
 C         1.400921         0.026012         0.075665
 C         1.707138        -1.211735         0.870427
 C         2.653827        -0.400056         1.863693
 C         2.668813         0.633599         0.807691
 O         3.034246         1.916874         0.781430
 C         2.705754        -0.105129        -0.542525
 O         3.428056         0.604926        -1.595631
 C         2.799087        -1.564731        -0.298713
 H        -0.402475         0.822312         0.865279
 H         0.280479         1.702175        -0.484508
 H        -0.593446         0.090258        -0.961750
 H         0.998044        -1.859632         1.283489
 H         2.182195         0.124363         2.750865
 H         3.621335        -0.773179         2.078122
 H         3.716570         2.040868         0.135530
 H         2.723219         0.617769        -2.361799
 H         2.284770        -2.049128        -1.084059
 H         3.759907        -2.114480        -0.195511
