19
Iteration:   230charge 0 multiplicity 1
 C         0.151814         0.551472        -0.422748
 C         1.462791         0.039894         0.001108
 C         1.876103        -1.419586         0.367689
 C         2.463591        -0.918725         1.686834
 C         2.515039         0.455338         1.017261
 O         2.637768         1.794820         1.443916
 C         2.877594         0.155877        -0.541542
 O         3.485683         1.139670        -1.275698
 C         3.039098        -1.338381        -0.662144
 H        -0.407295         0.903648         0.504596
 H         0.333099         1.442377        -1.062456
 H        -0.511830        -0.161953        -0.865358
 H         1.338645        -2.262758         0.301588
 H         1.706952        -0.938791         2.451589
 H         3.409276        -1.314069         2.061111
 H         3.074944         2.434905         0.742262
 H         3.011849         1.524679        -2.011156
 H         2.632846        -1.766050        -1.593776
 H         4.127533        -1.802435        -0.456384
