19
Iteration:  2506
 C         0.007938         0.751595        -0.140245
 C         1.383591         0.131660         0.149374
 C         1.760492        -1.169669         0.987123
 C         2.754252        -0.313859         1.855659
 C         2.738840         0.611961         0.675928
 O         3.033803         2.012347         0.643893
 C         2.660708        -0.203500        -0.588304
 O         3.357314         0.457860        -1.573684
 C         2.736624        -1.633897        -0.198078
 H        -0.654388        -0.031018         0.049415
 H        -0.236398         1.610277         0.385051
 H         0.092232         1.000873        -1.174888
 H         1.158848        -1.981635         1.375025
 H         2.469880         0.027381         2.805402
 H         3.642954        -0.966045         2.046331
 H         3.345188         2.174138        -0.353413
 H         3.012917         0.315055        -2.502712
 H         2.230449        -2.326348        -0.857564
 H         3.499754        -2.119799         0.297149
