19
Iteration:  3341
 C         0.031251         0.701768        -0.439005
 C         1.374813         0.086704         0.154393
 C         1.828379        -1.255044         0.909647
 C         2.675579        -0.444699         1.958887
 C         2.667623         0.640583         0.770548
 O         3.179309         1.961129         0.954789
 C         2.696774        -0.144736        -0.600730
 O         3.216149         0.705619        -1.636698
 C         2.791245        -1.673819        -0.289495
 H        -0.299648         1.692491        -0.051044
 H        -0.027203         0.688193        -1.551890
 H        -0.878777         0.018105        -0.141564
 H         1.041166        -1.887972         1.309985
 H         2.225825        -0.168305         2.928358
 H         3.591770        -0.899518         2.298097
 H         3.595568         2.464118         0.152475
 H         2.919230         0.267678        -2.535529
 H         2.364119        -2.305627        -1.080522
 H         3.683799        -2.145769         0.109981
