19
Iteration:  3590charge 0 multiplicity 1
 C         0.143436         0.720112        -0.389818
 C         1.391097         0.080376         0.118682
 C         1.834273        -1.327593         0.869102
 C         2.646539        -0.357487         1.959684
 C         2.655303         0.640643         0.829526
 O         3.087636         1.933103         0.993724
 C         2.779259        -0.075853        -0.528161
 O         3.161021         0.623007        -1.812335
 C         2.775106        -1.616132        -0.259513
 H         0.088214         1.786709        -0.190778
 H         0.107709         0.778002        -1.491436
 H        -0.762777         0.216556        -0.112535
 H         1.136699        -1.944890         1.375672
 H         1.768706        -0.168168         2.673688
 H         3.625011        -0.729757         2.314550
 H         4.009619         2.083762         0.881477
 H         2.767221         0.119590        -2.514459
 H         2.269987        -2.213685        -0.973679
 H         3.636893        -2.275370         0.034043
