19
Iteration:  4971
 C         0.114100         0.816003        -0.225310
 C         1.430631         0.239720         0.191809
 C         1.806130        -0.968084         1.273244
 C         2.876859        -0.051662         1.884685
 C         2.822878         0.767674         0.646384
 O         3.258219         2.018988         0.312119
 C         2.605716        -0.361432        -0.533810
 O         3.054817        -0.059897        -1.836855
 C         2.537242        -1.731238         0.182973
 H        -0.206044         0.558959        -1.211378
 H        -0.568691         0.519731         0.606477
 H         0.351456         1.889997        -0.072830
 H         0.983255        -1.386454         1.931378
 H         2.643585         0.489619         2.797095
 H         3.929000        -0.555662         2.099321
 H         3.355422         2.121863        -0.658332
 H         2.181577         0.366751        -2.239225
 H         1.850807        -2.457839        -0.309467
 H         3.479816        -2.126194         0.485243
