19
Iteration:  3000
 C         0.197759         0.839750        -0.158709
 C         1.406220         0.087251         0.142001
 C         1.813111        -1.236256         0.912360
 C         2.637674        -0.295330         1.922024
 C         2.671594         0.624977         0.793306
 O         2.942019         1.933815         0.828811
 C         2.789005        -0.102898        -0.536557
 O         3.232402         0.404477        -1.801351
 C         2.823341        -1.625456        -0.292357
 H         0.381226         1.794563        -0.595744
 H        -0.266168         0.291375        -0.958219
 H        -0.613948         0.787723         0.599730
 H         1.078210        -1.977437         1.269328
 H         1.987662         0.232024         2.742690
 H         3.639049        -0.657001         2.282824
 H         3.711450         2.250681         0.485078
 H         2.563022        -0.148902        -2.388603
 H         2.135025        -2.088325        -1.093013
 H         3.855351        -2.090971        -0.079646
