19
Iteration:   367charge 0 multiplicity 1
 C         0.087381         0.594103        -0.494645
 C         1.385494         0.004087        -0.000335
 C         1.914698        -1.486391         0.420610
 C         2.497508        -0.836323         1.802745
 C         2.533798         0.530212         0.949573
 O         2.711816         1.796585         1.398354
 C         2.820406         0.203348        -0.457792
 O         3.480660         1.061268        -1.337505
 C         3.030614        -1.350458        -0.646349
 H        -0.038636         0.719020        -1.556537
 H        -0.671137        -0.019267        -0.033096
 H        -0.142090         1.656172        -0.098205
 H         1.326521        -2.521412         0.464058
 H         1.831546        -0.716924         2.769115
 H         3.488223        -1.316950         2.209906
 H         3.517575         2.167124         0.868919
 H         2.969916         1.169773        -2.099836
 H         2.602219        -1.678230        -1.690986
 H         4.120062        -1.764396        -0.574519
