19
Iteration:  3193charge 0 multiplicity 1
 C         0.190765         0.842376        -0.247991
 C         1.410424         0.060007         0.128251
 C         1.826939        -1.306838         0.885779
 C         2.655192        -0.365925         1.873457
 C         2.724444         0.637130         0.735432
 O         2.939092         2.001755         0.912434
 C         2.741055        -0.158134        -0.554577
 O         3.219693         0.536284        -1.696080
 C         2.819486        -1.668414        -0.267765
 H        -0.631568         0.147607        -0.013271
 H        -0.059171         1.676695         0.464576
 H         0.200585         1.172003        -1.275943
 H         1.010157        -2.040736         1.298762
 H         1.936683         0.048251         2.541286
 H         3.527651        -0.843935         2.257939
 H         3.414656         2.223183         0.056123
 H         2.720460         0.294389        -2.425543
 H         2.425588        -2.403338        -0.942377
 H         3.821319        -2.050139         0.039014
