19
Iteration:  4326
 C         0.075347         0.654542        -0.237060
 C         1.443579         0.267265         0.226911
 C         1.838006        -1.201789         1.033624
 C         2.620338        -0.240798         1.960695
 C         2.747498         0.698468         0.771587
 O         3.277375         2.023953         0.607125
 C         2.676603        -0.200574        -0.574374
 O         3.110335         0.371132        -1.713039
 C         2.600604        -1.684666        -0.246029
 H        -0.360511         1.490391         0.392317
 H         0.197657         1.101983        -1.215538
 H        -0.582594        -0.255588        -0.335064
 H         1.211321        -1.814274         1.727495
 H         1.898290         0.277199         2.635811
 H         3.517427        -0.555614         2.414151
 H         3.936858         1.946045        -0.089345
 H         3.705378        -0.305870        -1.990140
 H         1.975266        -2.256390        -0.952247
 H         3.598676        -2.140527        -0.032506
