19
Iteration:  3664
 C         0.139449         0.697384        -0.201733
 C         1.421538         0.081923         0.076484
 C         1.863015        -1.251665         0.884609
 C         2.580248        -0.372863         1.897098
 C         2.655615         0.598301         0.801040
 O         3.057362         1.979434         0.804484
 C         2.688031        -0.168301        -0.585271
 O         3.392017         0.591735        -1.544124
 C         2.667059        -1.630687        -0.334150
 H        -0.304469         1.263937         0.710525
 H         0.180387         1.551135        -0.996429
 H        -0.620601        -0.004591        -0.570571
 H         1.218434        -1.966614         1.259825
 H         1.928709         0.070320         2.639718
 H         3.550838        -0.672952         2.390292
 H         3.313633         2.254953        -0.152230
 H         2.914081         0.646611        -2.473052
 H         2.138294        -2.275240        -1.138223
 H         3.644884        -2.143387        -0.194894
