19
Iteration:  1513
 C         0.171825         0.639942        -0.362074
 C         1.397369         0.044276         0.090152
 C         1.748957        -1.357877         0.793988
 C         2.660833        -0.587640         1.831569
 C         2.615025         0.599926         0.819623
 O         2.896994         1.956756         1.045618
 C         2.804211        -0.019313        -0.536016
 O         3.370680         0.783576        -1.542475
 C         2.756974        -1.523745        -0.390236
 H         0.041316         0.650497        -1.454279
 H        -0.553150         0.010094         0.112602
 H         0.006891         1.724538         0.072599
 H         1.207870        -2.252416         1.139601
 H         2.229655        -0.171565         2.732933
 H         3.695052        -1.005943         2.021526
 H         3.603057         2.113683         0.323909
 H         2.670339         0.839256        -2.340297
 H         2.477772        -1.964751        -1.464706
 H         3.798576        -2.015436        -0.054306
