19
Iteration:  1014charge 0 multiplicity 1
 C         0.100674         0.581380        -0.367034
 C         1.391625         0.052702        -0.004985
 C         1.801393        -1.408088         0.619515
 C         2.495105        -0.665141         1.885880
 C         2.502873         0.595877         0.969530
 O         3.004585         1.876249         1.167901
 C         2.780308         0.066745        -0.572426
 O         3.411388         0.874227        -1.538373
 C         2.947261        -1.451218        -0.459744
 H        -0.129544         0.455452        -1.482445
 H        -0.661713         0.075480         0.248488
 H        -0.056786         1.619606        -0.152820
 H         1.114320        -2.268077         0.899629
 H         1.852573        -0.496703         2.809261
 H         3.492370        -0.898397         2.089325
 H         3.471337         1.896007         0.322300
 H         2.673391         1.100731        -2.103940
 H         2.818739        -1.781002        -1.495384
 H         3.868735        -1.658366         0.049459
