19
Iteration:  2695charge 0 multiplicity 1
 C         0.004733         0.731340        -0.192323
 C         1.321593         0.100842         0.192053
 C         1.801485        -1.197953         1.014132
 C         2.750413        -0.232555         1.991150
 C         2.626552         0.678585         0.740817
 O         3.147543         1.948824         0.605577
 C         2.698184        -0.209521        -0.588991
 O         3.355672         0.408337        -1.658434
 C         2.705304        -1.620734        -0.257090
 H        -0.330262         0.694711        -1.261173
 H        -0.811855         0.206671         0.343804
 H         0.129282         1.863644         0.018537
 H         1.282370        -1.885640         1.725230
 H         2.156854         0.153333         2.848876
 H         3.809070        -0.677981         2.213890
 H         3.588778         1.944051        -0.287649
 H         2.635399         0.514550        -2.410931
 H         2.118289        -2.295868        -1.025854
 H         3.803059        -1.922361        -0.027683
