19
Iteration:  1967
 C         0.035056         0.662893        -0.339317
 C         1.392606         0.167190         0.067303
 C         1.870527        -1.260842         0.929696
 C         2.724507        -0.400356         1.870820
 C         2.635593         0.606698         0.784643
 O         3.018907         1.932495         0.855002
 C         2.712712        -0.135290        -0.540356
 O         3.358975         0.641459        -1.527360
 C         2.749856        -1.630003        -0.315703
 H        -0.248650         1.652115        -0.005246
 H        -0.190957         0.479436        -1.398528
 H        -0.804085         0.149884         0.157755
 H         0.996465        -1.737653         1.340216
 H         2.202030        -0.364505         2.793571
 H         3.848787        -0.840533         2.070351
 H         3.421228         2.030696         0.038374
 H         2.760277         0.888945        -2.309262
 H         2.187935        -2.071614        -1.075307
 H         3.664132        -2.176456        -0.239890
