19
Iteration:   786
 C         0.117573         0.537519        -0.423114
 C         1.405984         0.069982         0.062955
 C         1.817818        -1.363911         0.597098
 C         2.551258        -0.729675         1.870180
 C         2.623816         0.511139         0.890865
 O         2.861939         1.890312         1.236153
 C         2.869246         0.082750        -0.530487
 O         3.400842         0.986007        -1.451860
 C         2.894822        -1.415765        -0.522022
 H        -0.344955         1.405828         0.180223
 H         0.002486         0.794472        -1.538930
 H        -0.601745        -0.301099        -0.356890
 H         1.105981        -2.144182         0.664708
 H         1.651068        -0.624340         2.564002
 H         3.573288        -1.232192         2.089095
 H         3.325641         2.123959         0.468010
 H         2.807280         0.867107        -2.226949
 H         2.431021        -1.923582        -1.420305
 H         3.811618        -1.962897        -0.203098
