19
Iteration:  2531charge 0 multiplicity 1
 C         0.048694         0.754728        -0.207457
 C         1.353355         0.073406         0.222153
 C         1.856267        -1.250985         0.979242
 C         2.784931        -0.253144         1.903537
 C         2.567752         0.675556         0.770723
 O         3.090149         1.972537         0.553021
 C         2.689567        -0.165468        -0.510506
 O         3.368382         0.493244        -1.617046
 C         2.642247        -1.628894        -0.247603
 H        -0.722023        -0.020250        -0.360196
 H        -0.320188         1.396134         0.608973
 H         0.377235         1.354094        -1.078430
 H         1.227548        -1.977634         1.460012
 H         2.258512        -0.141350         2.843867
 H         3.753371        -0.881904         2.227737
 H         3.509708         1.895943        -0.300463
 H         2.981049         0.168528        -2.378530
 H         2.013677        -2.227942        -0.837354
 H         3.599699        -2.160787         0.005471
