19
Iteration:  3441charge 0 multiplicity 1
 C        -0.029358         0.745466        -0.252111
 C         1.382655         0.056262         0.038902
 C         1.863109        -1.251181         0.869715
 C         2.585751        -0.494716         1.952141
 C         2.612152         0.641363         0.795950
 O         3.059025         2.020331         0.970437
 C         2.733805        -0.107009        -0.674852
 O         3.379792         0.608770        -1.704837
 C         2.857410        -1.622821        -0.297114
 H        -0.070892         1.534549        -1.027357
 H        -0.856905         0.003502        -0.431640
 H        -0.321120         1.416846         0.656536
 H         1.199944        -2.169334         1.163214
 H         1.826392        -0.154433         2.618878
 H         3.411958        -0.944592         2.472751
 H         4.049604         2.018919         0.686773
 H         2.896178         0.165145        -2.515472
 H         2.253201        -2.339023        -0.935681
 H         3.855870        -1.885136        -0.039721
