19
Iteration:  3735charge 0 multiplicity 1
 C         0.033428         0.717046        -0.225140
 C         1.337513         0.080036         0.161586
 C         1.742356        -1.256907         0.891039
 C         2.661787        -0.317583         1.851815
 C         2.677670         0.647866         0.710214
 O         3.093427         1.966391         0.916882
 C         2.810085        -0.072275        -0.579347
 O         3.333082         0.508273        -1.691719
 C         2.750234        -1.632818        -0.301944
 H        -0.837841         0.215143         0.180194
 H         0.022624         1.685642         0.276833
 H        -0.152927         0.915984        -1.347090
 H         1.343601        -2.255805         1.327856
 H         1.883500         0.086158         2.583080
 H         3.493009        -0.740234         2.450983
 H         3.762088         2.303795         0.321999
 H         2.802199         0.043119        -2.453597
 H         2.367463        -2.310267        -1.009775
 H         3.665933        -2.205032         0.058900
