19
Iteration:  4387charge 0 multiplicity 1
 C         0.100478         0.838445        -0.249906
 C         1.407471         0.149452         0.125097
 C         1.809242        -1.166841         1.063770
 C         2.700523        -0.223088         1.946879
 C         2.754600         0.662446         0.690053
 O         3.222241         2.022169         0.678584
 C         2.632267        -0.273229        -0.572738
 O         3.081287         0.251947        -1.822231
 C         2.704078        -1.725982        -0.114351
 H        -0.712003         0.533987         0.351692
 H         0.258200         1.990720        -0.049511
 H        -0.186435         0.933120        -1.284399
 H         1.207512        -1.814480         1.700455
 H         2.381216         0.316427         2.843113
 H         3.787568        -0.532364         2.392624
 H         2.700329         2.541785         0.068521
 H         3.969686         0.490792        -1.732038
 H         2.197343        -2.438047        -0.843985
 H         3.559346        -2.242099         0.262109
