19
Iteration:  1133charge 0 multiplicity 1
 C         0.034116         0.731448        -0.354501
 C         1.345657         0.054969        -0.001644
 C         1.873568        -1.380967         0.668402
 C         2.675366        -0.606542         1.778296
 C         2.553690         0.547596         0.848077
 O         2.814770         1.856935         1.199845
 C         2.816464        -0.019038        -0.541662
 O         3.425079         0.902225        -1.488478
 C         2.932237        -1.599711        -0.431795
 H        -0.001544         1.407554        -1.225007
 H        -0.767101        -0.013991        -0.632119
 H        -0.287100         1.351162         0.526006
 H         0.945707        -2.029524         0.939191
 H         2.135443        -0.258654         2.795095
 H         3.785820        -0.894163         2.163072
 H         3.544272         2.168793         0.507147
 H         3.098192         0.821859        -2.534940
 H         2.427235        -2.008710        -1.306051
 H         3.833635        -2.107124        -0.089671
