19
Iteration:  3966charge 0 multiplicity 1
 C         0.201795         0.821834        -0.241690
 C         1.437697         0.075069         0.070435
 C         1.844287        -1.292333         0.984182
 C         2.633041        -0.267099         1.919381
 C         2.651743         0.584208         0.756563
 O         3.049915         1.908922         0.704608
 C         2.694189        -0.215069        -0.590579
 O         3.164377         0.614574        -1.738767
 C         2.736398        -1.659999        -0.114408
 H         0.305220         1.901012         0.045835
 H         0.100067         0.793198        -1.310322
 H        -0.869777         0.679816         0.229677
 H         1.177942        -1.903157         1.586975
 H         1.997650         0.003560         2.773125
 H         3.629597        -0.545392         2.204843
 H         3.991187         1.835382         0.805137
 H         2.927927        -0.010453        -2.315055
 H         2.466069        -2.283118        -0.911573
 H         3.775058        -2.092398         0.112252
