19
Iteration:  3994charge 0 multiplicity 1
 C         0.120380         0.846505        -0.318879
 C         1.385434         0.142958         0.209355
 C         1.780547        -1.217649         0.918961
 C         2.700660        -0.392837         1.864088
 C         2.766005         0.614440         0.752344
 O         3.054405         2.035468         0.811376
 C         2.676771        -0.212291        -0.551873
 O         3.151056         0.429922        -1.707456
 C         2.815001        -1.616078        -0.161566
 H        -0.227008         1.781004         0.109748
 H         0.403839         1.008519        -1.404169
 H        -0.778846         0.321579        -0.353303
 H         1.175643        -2.000602         1.410931
 H         2.206295         0.038936         2.754136
 H         3.679361        -0.861484         2.207408
 H         3.851150         2.053606         0.300589
 H         2.649244        -0.079019        -2.285646
 H         2.370137        -2.341924        -0.954855
 H         3.767354        -2.031131         0.095717
