19
Iteration:   900
 C         0.198019         0.652106        -0.315550
 C         1.438163        -0.017882        -0.014676
 C         1.865800        -1.447598         0.597355
 C         2.464631        -0.534338         1.820809
 C         2.533603         0.501638         0.826062
 O         2.852147         1.817436         1.271190
 C         2.821354         0.006240        -0.596367
 O         3.353565         0.947640        -1.497354
 C         2.975297        -1.468290        -0.437536
 H        -0.544325        -0.074812        -0.103381
 H         0.170812         1.578742         0.278006
 H         0.106078         0.958368        -1.386080
 H         1.215431        -2.315466         0.793084
 H         1.718382        -0.163901         2.482578
 H         3.448647        -0.778042         2.295826
 H         3.307951         2.327937         0.478489
 H         2.590514         1.114114        -2.210988
 H         2.640052        -1.897952        -1.330708
 H         3.819176        -1.978194        -0.131921
