19
Iteration:  1183
 C         0.024624         0.644030        -0.297202
 C         1.388992         0.063832         0.013248
 C         1.949205        -1.361250         0.639806
 C         2.431386        -0.571940         1.902927
 C         2.568917         0.553821         0.880846
 O         2.985363         1.849668         1.109795
 C         2.872967        -0.019841        -0.532600
 O         3.376389         0.885502        -1.540921
 C         2.901931        -1.493474        -0.471430
 H        -0.065631         1.717342        -0.393909
 H        -0.320543         0.279690        -1.258545
 H        -0.659887         0.358431         0.542142
 H         1.478788        -2.278154         0.892154
 H         1.556271        -0.499620         2.518811
 H         3.236432        -0.856933         2.533459
 H         3.566318         2.060133         0.413109
 H         2.783595         0.849665        -2.209175
 H         2.389679        -1.928810        -1.342280
 H         3.923638        -1.925511        -0.321973
