19
Iteration:  3866
 C         0.041292         0.655073        -0.215042
 C         1.370243         0.137126         0.147964
 C         1.778122        -1.173991         0.921940
 C         2.616109        -0.300836         1.926826
 C         2.618317         0.664776         0.759577
 O         3.221248         1.950298         0.803005
 C         2.757338        -0.155477        -0.564354
 O         3.302203         0.548175        -1.664525
 C         2.725863        -1.668118        -0.302359
 H        -0.068853         0.767366        -1.314912
 H        -0.756738         0.007100         0.142642
 H        -0.276379         1.699402         0.231771
 H         1.009892        -1.889238         1.312233
 H         1.980720        -0.042713         2.748394
 H         3.546218        -0.736104         2.123123
 H         3.563481         1.961709        -0.122123
 H         3.233136         0.072823        -2.428137
 H         2.119933        -2.241847        -0.949874
 H         3.720044        -2.156756         0.040222
