19
Iteration:  2307
 C        -0.030244         0.679146        -0.171662
 C         1.277469         0.053818         0.132821
 C         1.829213        -1.199494         0.888747
 C         2.614017        -0.252684         1.899588
 C         2.699434         0.691850         0.761096
 O         3.121230         1.927082         0.840620
 C         2.817569        -0.103294        -0.563229
 O         3.308900         0.394183        -1.782637
 C         2.830107        -1.558735        -0.241443
 H         0.090631         1.727192         0.031751
 H        -0.288697         0.611080        -1.183565
 H        -0.720333         0.343457         0.581511
 H         1.187055        -2.049707         1.351596
 H         1.855373         0.038329         2.587548
 H         3.526619        -0.549924         2.455339
 H         3.681850         2.058284        -0.034896
 H         2.564016         0.550975        -2.277463
 H         2.394868        -2.299410        -0.984705
 H         3.708946        -1.987535         0.160217
