19
Iteration:  3259charge 0 multiplicity 1
 C         0.018780         0.676036        -0.193257
 C         1.390611         0.023379         0.083703
 C         1.727758        -1.195491         0.853377
 C         2.666500        -0.407418         1.861539
 C         2.673474         0.634184         0.810064
 O         3.016495         1.933946         0.778472
 C         2.709035        -0.120513        -0.568993
 O         3.415601         0.596687        -1.562338
 C         2.802528        -1.566856        -0.302421
 H        -0.423996         0.704663         0.807515
 H         0.282502         1.700268        -0.439415
 H        -0.532807         0.178145        -0.914912
 H         0.929827        -1.889898         1.291052
 H         2.203086         0.090533         2.682505
 H         3.612689        -0.875234         2.060510
 H         3.759361         2.058372         0.045640
 H         2.693979         0.536233        -2.255288
 H         2.215412        -2.127556        -1.040787
 H         3.811521        -2.071172        -0.130593
