19
Iteration:   219
 C         0.037107         0.618936        -0.409450
 C         1.386061        -0.006428        -0.015830
 C         1.941768        -1.494447         0.319750
 C         2.499254        -0.876008         1.763731
 C         2.571563         0.472722         0.967845
 O         2.620556         1.761985         1.472387
 C         2.839147         0.197600        -0.464235
 O         3.562546         1.070963        -1.297298
 C         3.061182        -1.272994        -0.700547
 H        -0.429534         1.280651         0.382313
 H         0.147757         1.302884        -1.297980
 H        -0.647705        -0.126143        -0.752027
 H         1.372849        -2.308732         0.373618
 H         1.634676        -0.888477         2.393536
 H         3.391967        -1.311955         2.244224
 H         3.100361         2.193895         0.689513
 H         2.878880         1.401812        -2.027739
 H         2.756463        -1.512403        -1.737066
 H         4.158614        -1.712545        -0.481891
