19
Iteration:  4700
 C         0.023218         0.645521        -0.241000
 C         1.384510         0.231676         0.193907
 C         1.787575        -1.013588         1.195821
 C         2.816708        -0.067797         1.948718
 C         2.813186         0.668377         0.659319
 O         3.419986         1.965000         0.416143
 C         2.628099        -0.239636        -0.532598
 O         3.114190         0.149112        -1.775408
 C         2.460774        -1.751621        -0.079626
 H        -0.814951        -0.053962         0.149524
 H        -0.132722         1.513763         0.363864
 H        -0.066109         0.779579        -1.372486
 H         1.208857        -1.502509         2.009229
 H         2.077009         0.481283         2.722594
 H         3.839542        -0.437339         2.342470
 H         2.715414         2.633378         0.197307
 H         3.805789         0.908585        -1.463980
 H         1.813316        -2.211450        -0.755262
 H         3.374197        -2.314669        -0.109468
