19
Iteration:  1959
 C        -0.011943         0.679024        -0.360445
 C         1.369441         0.161816         0.068405
 C         1.838839        -1.294446         0.929657
 C         2.789077        -0.396578         1.912147
 C         2.608093         0.591612         0.805024
 O         3.029827         1.893839         0.850072
 C         2.688776        -0.113297        -0.583301
 O         3.373912         0.650086        -1.505014
 C         2.749477        -1.625436        -0.331364
 H        -0.052668         1.775014        -0.293395
 H        -0.215533         0.506654        -1.496090
 H        -0.651549         0.136205         0.278965
 H         1.160180        -1.908929         1.488670
 H         2.268903        -0.103613         2.804457
 H         3.789232        -0.569011         2.172815
 H         3.520406         2.052624         0.062889
 H         2.682674         0.826094        -2.269396
 H         2.209391        -2.063025        -1.158456
 H         3.777379        -2.074534        -0.292738
