19
Iteration:  2178
 C         0.074565         0.598868        -0.288968
 C         1.417344         0.098926         0.138356
 C         1.782874        -1.199874         0.900102
 C         2.528919        -0.277185         1.951658
 C         2.686571         0.651817         0.789457
 O         3.201646         2.004323         0.930690
 C         2.734778        -0.215381        -0.626533
 O         3.250287         0.615712        -1.720584
 C         2.771704        -1.703735        -0.299478
 H        -0.230922         0.241762        -1.239992
 H        -0.500245         0.294464         0.620802
 H        -0.095778         1.694619        -0.087364
 H         1.183503        -2.074663         1.336208
 H         1.944861         0.202092         2.719708
 H         3.551972        -0.607178         2.298533
 H         3.358376         2.210735        -0.009699
 H         2.696442         0.363937        -2.549178
 H         2.400859        -2.373301        -1.071404
 H         3.831458        -1.996139        -0.060955
