19
Iteration:  1614
 C         0.110330         0.643432        -0.227910
 C         1.473405         0.027791         0.081484
 C         1.720404        -1.297716         0.739755
 C         2.554138        -0.504541         1.865782
 C         2.649446         0.632280         0.806000
 O         2.991527         1.949987         1.070055
 C         2.852887        -0.019635        -0.587995
 O         3.338578         0.695014        -1.626564
 C         2.835598        -1.528505        -0.385991
 H         0.014681         1.744419        -0.351404
 H        -0.184591         0.230128        -1.180922
 H        -0.620691         0.131612         0.444695
 H         1.130788        -2.135293         1.035324
 H         1.952690        -0.280021         2.698420
 H         3.500116        -0.992918         2.202901
 H         2.805771         2.412722         0.286230
 H         2.846361         0.567330        -2.418248
 H         2.456879        -2.106239        -1.298628
 H         3.795650        -2.007762         0.092366
