19
Iteration:  3709charge 0 multiplicity 1
 C         0.050119         0.785498        -0.206808
 C         1.375141         0.120104         0.038802
 C         1.800579        -1.262884         0.915170
 C         2.674500        -0.413138         1.917099
 C         2.539332         0.653906         0.781306
 O         3.108378         1.892012         0.761413
 C         2.658091        -0.126297        -0.686345
 O         3.338261         0.576108        -1.578137
 C         2.831759        -1.548478        -0.201430
 H        -0.611177         0.319872         0.635654
 H        -0.022317         1.939491         0.050367
 H        -0.511640         0.578214        -1.156104
 H         1.081770        -2.028695         1.123040
 H         1.963717        -0.313443         2.766321
 H         3.586802        -0.948512         2.219077
 H         3.881850         2.101074         0.161234
 H         3.339644         0.107917        -2.537299
 H         2.450112        -2.435378        -0.825572
 H         3.866998        -1.994667         0.026849
