19
Iteration:  4445
 C         0.110140         0.852487        -0.287515
 C         1.353439         0.149898         0.173102
 C         1.799464        -1.087588         1.106910
 C         2.791575        -0.291627         1.874272
 C         2.700614         0.661251         0.666227
 O         3.195940         1.989203         0.508479
 C         2.654913        -0.268089        -0.596304
 O         3.171706         0.231098        -1.737278
 C         2.669356        -1.702385        -0.005671
 H        -0.569908         0.225886        -0.908561
 H        -0.412745         1.197238         0.637327
 H         0.417624         1.660590        -0.948227
 H         1.060355        -1.786764         1.597677
 H         2.404415         0.270133         2.698923
 H         3.816413        -0.679839         2.034032
 H         3.143319         2.475657         1.382157
 H         3.117437         1.250923        -1.649976
 H         2.007814        -2.312160        -0.685760
 H         3.507716        -2.296102         0.399584
