19
Iteration:  2742charge 0 multiplicity 1
 C         0.056259         0.737956        -0.075652
 C         1.370379         0.079795         0.057986
 C         1.755704        -1.227725         1.014424
 C         2.552194        -0.251728         1.920118
 C         2.773707         0.641160         0.717973
 O         3.140043         1.981453         0.740796
 C         2.733658        -0.120373        -0.595884
 O         3.271387         0.398584        -1.793912
 C         2.809823        -1.609674        -0.157220
 H        -0.683310         0.128460        -0.651650
 H        -0.421273         0.761578         0.927708
 H         0.098252         1.674086        -0.555033
 H         0.900976        -1.764261         1.227324
 H         2.021889         0.338940         2.651117
 H         3.608217        -0.637506         2.245782
 H         3.720982         2.053561        -0.125008
 H         2.851021        -0.020829        -2.628730
 H         2.279527        -2.154814        -0.922764
 H         3.752182        -2.140181         0.186936
