19
Iteration:   562charge 0 multiplicity 1
 C         0.119610         0.746019        -0.524266
 C         1.374365         0.035726         0.006550
 C         1.919597        -1.412728         0.509415
 C         2.619771        -0.799230         1.819243
 C         2.530366         0.531073         0.964125
 O         2.740476         1.789715         1.379196
 C         2.811961         0.041672        -0.560526
 O         3.353681         1.027873        -1.413627
 C         3.031780        -1.454148        -0.538036
 H        -0.651657         0.378236         0.121036
 H         0.099067         1.832967        -0.420377
 H        -0.164730         0.486314        -1.617021
 H         1.124139        -2.317052         0.744134
 H         1.953447        -0.814865         2.707866
 H         3.607957        -1.086064         2.021525
 H         3.339987         2.303428         0.814573
 H         2.878482         0.906198        -2.236914
 H         2.855588        -1.894679        -1.481819
 H         3.883482        -1.815590        -0.105533
