19
Iteration:  4811charge 0 multiplicity 1
 C         0.187414         0.848089        -0.140727
 C         1.510992         0.257861         0.186648
 C         1.771904        -1.015289         1.157720
 C         2.760828        -0.157436         1.926437
 C         2.804869         0.752937         0.626319
 O         3.268369         2.012236         0.384551
 C         2.626275        -0.361597        -0.541320
 O         2.968233        -0.006121        -1.889981
 C         2.592942        -1.723046         0.092178
 H         0.172895         1.884045        -0.622674
 H        -0.329606         0.198118        -0.803844
 H        -0.480895         0.940817         0.737141
 H         0.885230        -1.357674         1.735265
 H         2.303665         0.519338         2.738582
 H         3.691061        -0.638046         2.315280
 H         2.596955         2.688687         0.424974
 H         3.987177         0.118925        -1.998736
 H         2.083291        -2.405342        -0.512694
 H         3.568852        -1.970166         0.451724
