19
Iteration:   843charge 0 multiplicity 1
 C         0.044467         0.547477        -0.409996
 C         1.333927         0.015058         0.047674
 C         1.778155        -1.343965         0.624998
 C         2.607756        -0.659120         1.722563
 C         2.528233         0.531497         0.875258
 O         2.906709         1.830606         1.190218
 C         2.755301         0.080721        -0.541324
 O         3.466862         0.975267        -1.378377
 C         2.977079        -1.431332        -0.461492
 H        -0.741454         0.621025         0.426024
 H         0.197635         1.678181        -0.640502
 H        -0.391339        -0.013065        -1.240493
 H         0.971954        -2.077395         0.864243
 H         2.219002        -0.652194         2.809096
 H         3.664530        -1.126193         1.988732
 H         3.391293         2.071811         0.362203
 H         3.171663         0.789907        -2.231507
 H         2.655716        -1.907787        -1.422006
 H         3.909806        -1.838516        -0.087082
