19
Iteration:    73
 C         0.146019         0.512516        -0.532537
 C         1.437664         0.026465         0.015469
 C         1.944163        -1.442270         0.299046
 C         2.463295        -0.908621         1.677008
 C         2.542908         0.450771         0.986038
 O         2.735721         1.696859         1.610639
 C         2.870667         0.182547        -0.502729
 O         3.391441         1.271918        -1.218190
 C         3.014743        -1.288833        -0.722066
 H        -0.144935        -0.151029        -1.455159
 H        -0.691815         0.657543         0.196673
 H         0.213182         1.562235        -0.947859
 H         1.255442        -2.425415         0.320785
 H         1.542614        -0.912962         2.373602
 H         3.274914        -1.389881         2.234460
 H         2.969621         2.272851         0.899481
 H         3.058711         1.161246        -2.146320
 H         2.706704        -1.542728        -1.792196
 H         4.074344        -1.796238        -0.474969
