19
Iteration:  4423
 C         0.198060         0.821366        -0.234313
 C         1.465217         0.147045         0.244992
 C         1.753846        -1.119195         1.086861
 C         2.733365        -0.230611         1.966741
 C         2.777498         0.678718         0.766020
 O         3.129213         2.029792         0.480831
 C         2.715691        -0.218245        -0.547193
 O         3.126668         0.182927        -1.816866
 C         2.602372        -1.716434        -0.169346
 H        -0.690931         0.171778        -0.344301
 H         0.013504         1.611412         0.527225
 H         0.381476         1.187812        -1.236062
 H         1.051825        -1.876909         1.503629
 H         2.179014         0.243099         2.757337
 H         3.644402        -0.743529         2.268072
 H         2.653254         2.492314         1.165343
 H         3.558522         1.004326        -1.742019
 H         2.007406        -2.237376        -1.000148
 H         3.483469        -2.307279         0.182739
