19
Iteration:  1179charge 0 multiplicity 1
 C         0.031718         0.627848        -0.287580
 C         1.405927         0.071224         0.024779
 C         1.946895        -1.385965         0.622442
 C         2.430728        -0.566941         1.900162
 C         2.575738         0.553924         0.932885
 O         2.976242         1.852824         1.106659
 C         2.866491         0.016509        -0.573375
 O         3.391278         0.875668        -1.543043
 C         2.907533        -1.501700        -0.452238
 H         0.026229         1.767255        -0.424364
 H        -0.455851         0.195676        -1.258700
 H        -0.660463         0.466176         0.516066
 H         1.367973        -2.308914         0.781863
 H         1.409534        -0.510556         2.572737
 H         3.335851        -0.890792         2.609888
 H         3.541934         2.136649         0.285513
 H         2.667201         0.851167        -2.321102
 H         2.398682        -1.850287        -1.358025
 H         3.844196        -1.970785        -0.321739
