19
Iteration:   608charge 0 multiplicity 1
 C         0.090487         0.561227        -0.341109
 C         1.434669         0.079647        -0.025300
 C         1.827753        -1.387391         0.520485
 C         2.441311        -0.724552         1.764282
 C         2.606261         0.519663         0.952659
 O         2.834655         1.825811         1.291306
 C         2.838186         0.043362        -0.574478
 O         3.407633         1.077011        -1.351393
 C         3.043237        -1.498553        -0.574739
 H        -0.641453        -0.249130        -0.412323
 H        -0.246853         1.221700         0.423304
 H         0.184451         1.225420        -1.281191
 H         1.033630        -2.210500         0.644936
 H         1.566804        -0.491950         2.349536
 H         3.288052        -1.139503         2.291649
 H         3.014219         2.167794         0.350184
 H         3.094307         1.016162        -2.199665
 H         2.821384        -2.003692        -1.493211
 H         3.955901        -1.778587        -0.258237
