19
Iteration:  2405charge 0 multiplicity 1
 C         0.122687         0.735956        -0.393734
 C         1.333131         0.117365         0.210864
 C         1.811458        -1.211789         1.011174
 C         2.756681        -0.264343         1.851063
 C         2.732764         0.644905         0.681805
 O         3.099204         1.972155         0.784295
 C         2.710789        -0.212782        -0.515670
 O         3.153746         0.501000        -1.589372
 C         2.733846        -1.684270        -0.233972
 H        -0.521115         1.067723         0.415880
 H         0.442222         1.544282        -1.039116
 H        -0.448796        -0.073929        -0.848415
 H         1.292002        -2.008946         1.659495
 H         2.280697         0.217821         2.797165
 H         3.786945        -0.809101         2.220397
 H         3.497668         2.186187        -0.089092
 H         2.627447         0.466506        -2.321815
 H         2.206658        -2.295664        -1.042464
 H         3.697305        -2.051956        -0.113661
