19
Iteration:  4655
 C         0.068842         0.819713        -0.186182
 C         1.395009         0.236133         0.117500
 C         1.742280        -1.134214         1.153594
 C         2.745719        -0.154306         1.889769
 C         2.767709         0.728041         0.700506
 O         3.369134         2.008326         0.549110
 C         2.612764        -0.306939        -0.594556
 O         3.025248         0.074982        -1.829002
 C         2.695288        -1.637485        -0.017785
 H        -0.598076         0.940612         0.699496
 H        -0.036816         1.788115        -0.597101
 H        -0.633607         0.218502        -0.852460
 H         0.939848        -1.792609         1.442315
 H         2.391289         0.430349         2.849560
 H         3.764573        -0.683636         2.119674
 H         2.786158         2.491405        -0.057243
 H         4.059037         0.328641        -1.670822
 H         2.371044        -2.486426        -0.548424
 H         3.642920        -1.878897         0.412364
