19
Iteration:   254charge 0 multiplicity 1
 C         0.121550         0.569905        -0.491406
 C         1.469520         0.020526        -0.077317
 C         1.807456        -1.434535         0.387377
 C         2.533925        -0.789674         1.730842
 C         2.520383         0.434918         0.937846
 O         2.716641         1.718636         1.428705
 C         2.929809         0.146209        -0.504467
 O         3.379251         1.283067        -1.207380
 C         3.021004        -1.492558        -0.626980
 H        -0.609907         0.298259         0.256792
 H         0.190337         1.660338        -0.571825
 H        -0.261277         0.171890        -1.479046
 H         1.162202        -2.212450         0.453242
 H         1.839779        -0.795675         2.570286
 H         3.539176        -1.117994         2.157670
 H         3.375008         2.221373         1.000290
 H         2.909473         1.451713        -2.127802
 H         2.777011        -1.859419        -1.652650
 H         4.021739        -1.978143        -0.298792
