19
Iteration:  3113charge 0 multiplicity 1
 C         0.012781         0.568824        -0.354352
 C         1.389965         0.151876         0.076173
 C         1.766256        -1.211743         0.998803
 C         2.715247        -0.398799         1.929747
 C         2.626524         0.655104         0.751477
 O         3.184004         1.942198         0.787800
 C         2.745226        -0.148003        -0.574474
 O         3.272070         0.644398        -1.607174
 C         2.688178        -1.572421        -0.223780
 H        -0.091794         0.348145        -1.386663
 H        -0.564662         0.114369         0.413193
 H         0.082704         1.608745        -0.078681
 H         1.038323        -1.915480         1.408713
 H         2.381145        -0.163202         2.944781
 H         3.736211        -0.843061         2.199938
 H         3.645164         1.980936        -0.146373
 H         2.823598         0.446022        -2.368483
 H         2.065967        -2.074730        -1.086604
 H         3.584674        -2.103770         0.060043
