19
Iteration:  4560
 C         0.120581         0.788838        -0.299735
 C         1.286900         0.144634         0.207959
 C         1.847298        -1.080341         1.134978
 C         2.800111        -0.263008         1.893642
 C         2.714446         0.724239         0.702045
 O         3.306632         1.968200         0.602037
 C         2.606919        -0.192580        -0.529124
 O         3.072146         0.089899        -1.776700
 C         2.631754        -1.584070        -0.068182
 H         0.426893         1.726846        -0.911486
 H        -0.410001         0.276884        -1.159378
 H        -0.677318         1.165120         0.392515
 H         1.208886        -1.722542         1.722001
 H         2.517538         0.260481         2.804161
 H         3.794895        -0.537515         1.949540
 H         2.758934         2.458600        -0.100577
 H         3.843787         0.555110        -1.801804
 H         1.994381        -2.277838        -0.650323
 H         3.709642        -1.991279         0.135733
