19
Iteration:   868charge 0 multiplicity 1
 C         0.089184         0.620203        -0.362951
 C         1.417903         0.055209         0.035607
 C         1.890097        -1.406083         0.574035
 C         2.462701        -0.682055         1.836759
 C         2.586729         0.536958         0.920219
 O         2.910602         1.888022         1.157919
 C         2.793938         0.033542        -0.556742
 O         3.350814         0.966090        -1.439705
 C         2.993130        -1.471606        -0.466902
 H        -0.678991         0.143851         0.212896
 H         0.074203         1.667671        -0.113137
 H        -0.181008         0.478382        -1.445575
 H         1.156529        -2.255080         0.660889
 H         1.695970        -0.557753         2.534644
 H         3.271546        -1.108326         2.373589
 H         3.466929         2.069240         0.436353
 H         2.974983         0.853702        -2.287473
 H         2.673558        -1.938547        -1.341925
 H         3.887720        -1.927604        -0.173206
