19
Iteration:  3968charge 0 multiplicity 1
 C         0.199633         0.817160        -0.249896
 C         1.423037         0.078884         0.054628
 C         1.844552        -1.295344         0.989379
 C         2.642069        -0.268075         1.918151
 C         2.659919         0.590231         0.748050
 O         3.050542         1.914649         0.712243
 C         2.686582        -0.229728        -0.572849
 O         3.156438         0.615447        -1.734548
 C         2.743746        -1.650236        -0.102130
 H         0.330673         1.901478         0.089819
 H         0.144787         0.860982        -1.374106
 H        -0.851734         0.666700         0.207250
 H         1.141219        -1.851118         1.574398
 H         2.072359        -0.034867         2.814731
 H         3.612159        -0.599483         2.205789
 H         3.985420         1.788774         0.810458
 H         2.911518        -0.080698        -2.401350
 H         2.474310        -2.303633        -1.005502
 H         3.791694        -2.030149         0.093975
