19
Iteration:  4943charge 0 multiplicity 1
 C         0.096804         0.813343        -0.219702
 C         1.367369         0.202775         0.281873
 C         1.810837        -1.010462         1.246591
 C         2.881967        -0.043122         1.881670
 C         2.798679         0.762707         0.577412
 O         3.312759         1.993049         0.405514
 C         2.616955        -0.305032        -0.527371
 O         2.992684        -0.037613        -1.855791
 C         2.577399        -1.641421         0.123084
 H        -0.616489         0.060727        -0.709366
 H        -0.326968         1.404079         0.574218
 H         0.521408         1.474271        -0.988506
 H         1.055023        -1.454991         1.864953
 H         2.381926         0.633778         2.621197
 H         3.832651        -0.272939         2.287911
 H         3.896838         1.965767        -0.408730
 H         2.359660        -0.614382        -2.386355
 H         1.972434        -2.380513        -0.385434
 H         3.563154        -2.145011         0.448762
