19
Iteration:  3514charge 0 multiplicity 1
 C         0.078466         0.705494        -0.244357
 C         1.348004         0.038517         0.118417
 C         1.815158        -1.280854         0.845413
 C         2.697894        -0.362582         1.856881
 C         2.613533         0.625112         0.800408
 O         3.007327         1.936258         0.877729
 C         2.695761        -0.103860        -0.583430
 O         3.425252         0.556333        -1.512882
 C         2.762630        -1.589078        -0.377949
 H         0.277044         1.511174        -0.927666
 H        -0.698528         0.102285        -0.658965
 H        -0.334822         1.240711         0.589003
 H         1.039359        -1.938140         1.157677
 H         1.929772         0.059715         2.634392
 H         3.701407        -0.850872         2.189890
 H         3.208086         2.179920        -0.065975
 H         3.140372         0.856818        -2.447456
 H         2.258318        -2.095895        -1.170981
 H         3.751687        -2.031514        -0.021503
