19
Iteration:  3911charge 0 multiplicity 1
 C         0.000819         0.720949        -0.146730
 C         1.398904         0.150854         0.135556
 C         1.758057        -1.165973         0.926123
 C         2.728275        -0.359192         1.885241
 C         2.577371         0.678703         0.777001
 O         3.048592         1.984892         0.815909
 C         2.769085        -0.151884        -0.625968
 O         3.477919         0.380545        -1.769153
 C         2.701450        -1.639053        -0.179564
 H         0.089042         1.454082        -0.987607
 H        -0.780633         0.019393        -0.396287
 H        -0.493207         1.278965         0.774793
 H         0.929076        -1.765219         1.287682
 H         2.215016        -0.054880         2.776310
 H         3.607439        -0.900084         1.950918
 H         3.476982         2.239748        -0.036266
 H         2.725434         0.554891        -2.235100
 H         2.220053        -2.021759        -1.050652
 H         3.715788        -2.155521        -0.001609
