19
Iteration:  3211
 C         0.158371         0.842072        -0.221014
 C         1.363246        -0.022502         0.093372
 C         1.855477        -1.227034         0.927025
 C         2.677584        -0.423555         1.944500
 C         2.637887         0.636810         0.720707
 O         2.939920         1.890014         0.813549
 C         2.749070        -0.160754        -0.590623
 O         3.266390         0.562522        -1.608416
 C         2.786383        -1.554254        -0.270096
 H        -0.766131         0.379794         0.083804
 H         0.400690         1.774345         0.247132
 H         0.262894         0.985326        -1.310697
 H         1.290517        -2.080983         1.262808
 H         2.056358         0.023051         2.742410
 H         3.776157        -0.658538         2.191869
 H         3.300562         2.386538         0.041803
 H         3.016507         0.224568        -2.420335
 H         2.192152        -2.039437        -1.180859
 H         3.753952        -2.016198        -0.090371
