19
Iteration:  1765charge 0 multiplicity 1
 C         0.095258         0.670164        -0.227947
 C         1.348544         0.076496         0.115757
 C         1.734244        -1.343487         0.726263
 C         2.652064        -0.525267         1.820449
 C         2.654204         0.632688         0.797537
 O         2.994662         1.992610         0.987673
 C         2.683098        -0.048618        -0.573712
 O         3.351400         0.630390        -1.587725
 C         2.891297        -1.509653        -0.283846
 H        -0.712525        -0.060638        -0.017407
 H        -0.098205         1.614928         0.199944
 H        -0.063801         0.746727        -1.408464
 H         1.008883        -2.036391         1.086037
 H         2.198530         0.065986         2.735016
 H         3.631536        -1.062373         2.084081
 H         3.507861         2.268213         0.137824
 H         3.079277         0.258387        -2.500728
 H         2.731513        -2.083643        -1.230567
 H         3.799754        -1.788669         0.122648
