19
Iteration:  3397charge 0 multiplicity 1
 C         0.165718         0.761482        -0.420461
 C         1.466947         0.087362         0.136192
 C         1.823625        -1.296925         0.870208
 C         2.680679        -0.504805         1.963277
 C         2.747577         0.624055         0.867188
 O         2.955957         2.000504         0.893263
 C         2.714635        -0.125161        -0.569068
 O         3.236229         0.615614        -1.630199
 C         2.776734        -1.643829        -0.285989
 H         0.349359         1.807884        -0.757362
 H        -0.256959         0.229518        -1.315797
 H        -0.686337         0.845183         0.364404
 H         0.968775        -1.908071         1.304806
 H         2.154317        -0.284310         2.872804
 H         3.629634        -0.994413         2.069221
 H         3.239320         2.348469         0.005054
 H         2.463207         0.860894        -2.225254
 H         2.245626        -2.082161        -1.173212
 H         3.638554        -2.193704         0.010073
