19
Iteration:  4909charge 0 multiplicity 1
 C         0.058609         0.797013        -0.200620
 C         1.454759         0.180667         0.174194
 C         1.818930        -0.985602         1.245567
 C         2.862331         0.021844         1.998982
 C         2.802831         0.703847         0.613179
 O         3.334872         1.959137         0.335561
 C         2.654937        -0.319162        -0.500473
 O         2.885748         0.109879        -1.842968
 C         2.590067        -1.754292         0.096401
 H        -0.957356         0.496997         0.244934
 H         0.095991         1.848662        -0.094454
 H        -0.141462         0.761728        -1.277595
 H         0.899300        -1.443113         1.688997
 H         2.223128         0.635360         2.648897
 H         3.731555        -0.336100         2.489127
 H         4.144602         1.791043        -0.169384
 H         3.395675        -0.635344        -2.401837
 H         1.865467        -2.377820        -0.400295
 H         3.627467        -2.271127         0.338388
