19
Iteration:  3813
 C         0.136080         0.723659        -0.414028
 C         1.329808         0.077432         0.116818
 C         1.809470        -1.262457         0.962818
 C         2.748908        -0.316060         1.937192
 C         2.615010         0.612482         0.806823
 O         3.213655         1.916169         0.852616
 C         2.656221        -0.117326        -0.585383
 O         3.130059         0.610680        -1.623491
 C         2.761900        -1.662952        -0.227527
 H        -0.193500         0.231313        -1.350594
 H        -0.703064         0.903495         0.211329
 H         0.426786         1.794634        -0.709775
 H         0.967330        -1.890636         1.267177
 H         2.111427        -0.082306         2.813100
 H         3.790148        -0.489097         2.240416
 H         3.709576         1.962231         0.051446
 H         2.987263         0.093489        -2.342863
 H         2.262651        -2.210546        -1.011311
 H         3.777136        -2.084662         0.103111
