19
Iteration:   517charge 0 multiplicity 1
 C         0.104198         0.620770        -0.517460
 C         1.463840         0.064363         0.003656
 C         1.955833        -1.435033         0.519144
 C         2.574653        -0.737609         1.886999
 C         2.541280         0.503835         1.000950
 O         2.706239         1.818935         1.353772
 C         2.914264         0.071978        -0.564900
 O         3.372000         1.082033        -1.393786
 C         2.922112        -1.440273        -0.658490
 H        -0.501564         1.230631         0.135573
 H         0.289268         1.276643        -1.406397
 H        -0.450935        -0.284412        -0.899762
 H         1.227192        -2.407594         0.595514
 H         1.790204        -0.545795         2.653850
 H         3.464986        -1.095773         2.321681
 H         3.630721         1.801189         1.619647
 H         2.885480         0.899489        -2.211530
 H         2.245549        -1.757878        -1.410093
 H         3.778540        -1.980291        -0.683694
