19
Iteration:  1407charge 0 multiplicity 1
 C         0.050890         0.673159        -0.344421
 C         1.332078        -0.050465         0.118173
 C         1.849877        -1.354099         0.745426
 C         2.609492        -0.489562         1.867333
 C         2.592733         0.545891         0.831532
 O         2.926496         1.863830         1.026362
 C         2.717726         0.024926        -0.544923
 O         3.448273         0.798387        -1.482510
 C         2.865833        -1.482180        -0.493547
 H        -0.877977         0.068186        -0.260408
 H        -0.096891         1.553740         0.322365
 H         0.167973         1.086491        -1.323898
 H         1.285688        -2.196949         1.115606
 H         1.955821        -0.298301         2.691480
 H         3.666866        -0.773233         2.202667
 H         3.666046         1.926654         0.426380
 H         2.940660         0.700690        -2.283599
 H         2.492468        -1.982544        -1.420548
 H         3.904084        -1.775973        -0.223112
