19
Iteration:  2512charge 0 multiplicity 1
 C         0.050477         0.736987        -0.151738
 C         1.328088         0.112600         0.192129
 C         1.733418        -1.176391         1.045707
 C         2.749190        -0.370792         1.845340
 C         2.744521         0.613124         0.645346
 O         3.047821         2.034758         0.601456
 C         2.660301        -0.164723        -0.550961
 O         3.365094         0.456596        -1.563388
 C         2.760780        -1.631462        -0.231160
 H        -0.887158         0.021149        -0.103619
 H        -0.306838         1.624131         0.544286
 H         0.165145         0.999872        -1.247126
 H         1.033337        -1.948164         1.486760
 H         2.373600         0.146449         2.824924
 H         3.774409        -0.876279         1.970960
 H         3.298414         2.104511        -0.293457
 H         3.114222         0.349826        -2.422495
 H         2.150746        -2.196034        -1.033450
 H         3.686278        -2.203498         0.219158
