19
Iteration:  1746
 C        -0.010230         0.665914        -0.261823
 C         1.395030         0.122003         0.038120
 C         1.800527        -1.195389         0.785981
 C         2.610545        -0.487568         1.865451
 C         2.647745         0.618758         0.820839
 O         3.011509         1.913371         1.045060
 C         2.822393        -0.083126        -0.608439
 O         3.343829         0.672431        -1.643213
 C         2.899212        -1.609625        -0.290019
 H        -0.743516         0.093073         0.383251
 H        -0.139710         1.722103        -0.003203
 H        -0.257294         0.682699        -1.400553
 H         1.163503        -2.105253         1.081133
 H         2.019734        -0.383894         2.683330
 H         3.553944        -0.915299         2.100362
 H         3.015527         2.369861         0.095129
 H         2.689505         0.326946        -2.399935
 H         2.456737        -2.191706        -1.116735
 H         3.907926        -2.022674         0.046124
