19
Iteration:  4661
 C         0.013215         0.768021        -0.165244
 C         1.424641         0.213832         0.137350
 C         1.722233        -1.112886         1.123210
 C         2.767235        -0.128280         1.858513
 C         2.773022         0.771108         0.693553
 O         3.379766         1.983207         0.563976
 C         2.611835        -0.332765        -0.585019
 O         3.061228         0.091208        -1.843812
 C         2.653034        -1.637445         0.018061
 H        -0.647195         0.694411         0.699630
 H         0.096908         1.875773        -0.577741
 H        -0.565898         0.413354        -1.027902
 H         0.899805        -1.650381         1.662316
 H         2.504990         0.381483         2.722548
 H         3.616551        -0.669784         2.176839
 H         2.837146         2.486894        -0.026603
 H         3.915814         0.503980        -1.774709
 H         2.330957        -2.530254        -0.659405
 H         3.700920        -1.896765         0.392056
