19
Iteration:  2488charge 0 multiplicity 1
 C         0.066810         0.713023        -0.144910
 C         1.396013         0.131938         0.086117
 C         1.800132        -1.151985         0.992180
 C         2.715364        -0.314259         1.892841
 C         2.594590         0.664404         0.724887
 O         3.080973         1.983819         0.746402
 C         2.726111        -0.184901        -0.598090
 O         3.338679         0.462230        -1.736340
 C         2.732091        -1.727261        -0.163378
 H        -0.827374         0.146547         0.317201
 H        -0.006601         1.641943         0.537021
 H        -0.257302         0.926493        -1.223848
 H         0.942771        -1.612763         1.433512
 H         2.059511         0.046153         2.700629
 H         3.864813        -0.440113         2.212555
 H         3.612095         2.056479        -0.162592
 H         2.835230         0.317121        -2.582750
 H         2.186804        -2.366326        -0.846515
 H         3.833610        -2.112832         0.065073
