19
Iteration:   263
 C         0.080905         0.574632        -0.574503
 C         1.410635        -0.023051        -0.050779
 C         1.903672        -1.431055         0.418590
 C         2.510450        -0.807185         1.703305
 C         2.569963         0.473481         0.906942
 O         2.759712         1.711664         1.443971
 C         2.867684         0.111200        -0.533210
 O         3.364992         1.260394        -1.165787
 C         3.032228        -1.408542        -0.598753
 H        -0.692304         0.245418         0.192939
 H         0.056728         1.668221        -0.310573
 H        -0.168313         0.554680        -1.595246
 H         1.374331        -2.270107         0.464546
 H         1.815879        -0.650906         2.474039
 H         3.430824        -1.164992         2.143824
 H         3.475761         2.092525         0.975038
 H         2.925302         1.251494        -2.147247
 H         2.580519        -1.802885        -1.521231
 H         4.022447        -2.026361        -0.265894
