19
Iteration:  4860charge 0 multiplicity 1
 C         0.079942         0.838007        -0.178613
 C         1.356852         0.214970         0.277024
 C         1.825378        -1.003027         1.206276
 C         2.871991        -0.032104         1.922149
 C         2.771719         0.714861         0.612857
 O         3.300912         1.981269         0.380759
 C         2.575479        -0.316389        -0.515720
 O         3.059215         0.000699        -1.844104
 C         2.561335        -1.729307         0.007316
 H        -0.257084         1.545001         0.515394
 H         0.067126         1.364962        -1.206091
 H        -0.835385         0.238480        -0.285093
 H         1.291158        -1.541243         1.972483
 H         2.336773         0.431071         2.779155
 H         3.909528        -0.401192         2.158752
 H         3.500930         2.018359        -0.602045
 H         3.928828         0.253022        -1.786599
 H         1.701101        -2.330901        -0.451488
 H         3.407393        -2.234296         0.416120
