19
Iteration:  4936
 C         0.158152         0.767542        -0.197566
 C         1.399758         0.193854         0.280109
 C         1.837930        -1.031948         1.246315
 C         2.828123         0.028793         1.861627
 C         2.803300         0.752778         0.554305
 O         3.333775         1.999449         0.411642
 C         2.538979        -0.276989        -0.487477
 O         2.990637        -0.007510        -1.875205
 C         2.556865        -1.658111         0.124062
 H        -0.695477         0.197656        -0.518880
 H        -0.319217         1.619228         0.441134
 H         0.444369         1.291812        -1.168939
 H         1.231138        -1.605313         1.945919
 H         2.237010         0.551288         2.690792
 H         3.790674        -0.475382         2.334063
 H         3.966800         1.867278        -0.300988
 H         2.558293        -0.786158        -2.466631
 H         1.948681        -2.472371        -0.384090
 H         3.496824        -2.062496         0.344842
