19
Iteration:  4428
 C         0.178589         0.852498        -0.236416
 C         1.498646         0.133986         0.199115
 C         1.727062        -1.157426         1.092154
 C         2.770012        -0.221516         1.946546
 C         2.774988         0.667109         0.732596
 O         3.136348         2.054434         0.476899
 C         2.698697        -0.228316        -0.510854
 O         3.133750         0.188606        -1.814344
 C         2.584705        -1.731896        -0.143238
 H        -0.634599         0.106985        -0.469926
 H        -0.191043         1.564078         0.508247
 H         0.276591         1.312061        -1.261727
 H         0.991918        -1.783567         1.584043
 H         2.208732         0.091406         2.889931
 H         3.657477        -0.785421         2.345429
 H         2.764300         2.499934         1.298365
 H         3.462434         1.175687        -1.627427
 H         2.084106        -2.353855        -0.850806
 H         3.595447        -2.188540         0.091555
