19
Iteration:  4170
 C         0.126569         0.892587        -0.194158
 C         1.367310         0.126496         0.165993
 C         1.813034        -1.176513         1.034565
 C         2.753470        -0.309211         1.971559
 C         2.660969         0.679979         0.697806
 O         3.013972         2.040305         0.779024
 C         2.659545        -0.183412        -0.583744
 O         3.294066         0.268456        -1.793003
 C         2.717704        -1.647080        -0.218340
 H         0.018985         0.591983        -1.239194
 H        -0.817196         0.412836         0.252891
 H         0.176144         1.962594        -0.162509
 H         1.117116        -2.011852         1.236820
 H         2.274746         0.184349         2.782768
 H         3.677455        -0.723476         2.263807
 H         3.827020         2.180230         0.218779
 H         3.057043        -0.539299        -2.308365
 H         2.193375        -2.174476        -1.058023
 H         3.686343        -2.102491        -0.156438
