19
Iteration:  3325charge 0 multiplicity 1
 C         0.022709         0.575581        -0.309929
 C         1.357762         0.136556         0.101712
 C         1.755993        -1.223287         0.869210
 C         2.617740        -0.426187         1.805483
 C         2.635379         0.666165         0.832292
 O         3.204404         1.881363         0.959029
 C         2.803917        -0.038491        -0.544824
 O         3.283801         0.663378        -1.724060
 C         2.780429        -1.599067        -0.169248
 H        -0.237244         1.531859         0.188152
 H         0.056971         0.800667        -1.385485
 H        -0.765013        -0.075909        -0.115287
 H         1.121676        -2.062174         1.225297
 H         1.961057        -0.104366         2.634453
 H         3.636576        -0.828210         2.103669
 H         3.427663         2.076900         0.032112
 H         2.706025         0.377155        -2.524037
 H         2.147513        -2.097536        -0.914261
 H         3.781555        -2.109330         0.077859
