19
Iteration:   688
 C         0.099714         0.589973        -0.353743
 C         1.407189         0.008456         0.019970
 C         1.814769        -1.388937         0.608983
 C         2.547013        -0.716352         1.750492
 C         2.534059         0.540531         0.846275
 O         2.744681         1.854352         1.264254
 C         2.914970         0.073107        -0.512910
 O         3.487681         0.997240        -1.395927
 C         2.940194        -1.443617        -0.528124
 H         0.062236         1.061988        -1.392254
 H        -0.768341        -0.155518        -0.312984
 H        -0.182876         1.477501         0.207503
 H         1.136047        -2.147478         0.626791
 H         2.256264        -0.703081         2.796317
 H         3.544608        -1.252023         1.968070
 H         3.094598         2.296720         0.499112
 H         3.097006         0.938790        -2.253518
 H         2.443757        -1.793677        -1.435295
 H         3.830630        -1.983545        -0.453026
