19
Iteration:   284
 C         0.115851         0.599264        -0.558750
 C         1.351984        -0.024190         0.002103
 C         1.909491        -1.519982         0.443995
 C         2.479549        -0.816399         1.774999
 C         2.424981         0.470715         0.986979
 O         2.877762         1.726565         1.455466
 C         2.739685         0.161513        -0.529285
 O         3.386593         1.171621        -1.249438
 C         3.096164        -1.314064        -0.681600
 H        -0.821238        -0.038086        -0.453746
 H        -0.186049         1.601333        -0.149068
 H         0.372623         0.789822        -1.539916
 H         1.362462        -2.392468         0.548749
 H         1.756731        -0.880030         2.524852
 H         3.417931        -1.068378         2.195830
 H         3.429945         2.221292         0.699798
 H         3.254208         1.179583        -2.184385
 H         2.890205        -1.725268        -1.654545
 H         4.199961        -1.420989        -0.420209
