19
Iteration:  1846
 C         0.057775         0.757016        -0.361856
 C         1.414928         0.102886         0.137873
 C         1.820824        -1.304691         0.801334
 C         2.661411        -0.512867         1.901095
 C         2.611319         0.619974         0.881236
 O         2.942367         1.970791         0.946784
 C         2.810805        -0.102410        -0.541478
 O         3.325739         0.589107        -1.688947
 C         2.827742        -1.542643        -0.305968
 H        -0.479273         0.187077        -1.173842
 H        -0.638116         0.466465         0.495098
 H         0.018079         1.890850        -0.470287
 H         1.104656        -2.081472         1.252715
 H         2.270830        -0.399739         2.845188
 H         3.711221        -0.806330         1.981095
 H         3.674742         2.248225         0.311630
 H         2.545511         0.649729        -2.289981
 H         2.521125        -2.142244        -1.134973
 H         3.850610        -1.862233         0.006245
