19
Iteration:  3976charge 0 multiplicity 1
 C         0.184416         0.862327        -0.315787
 C         1.361556         0.051458         0.086805
 C         1.806846        -1.244298         1.028982
 C         2.688820        -0.329078         1.916128
 C         2.652725         0.635396         0.711233
 O         3.067682         1.938311         0.740237
 C         2.695015        -0.204409        -0.555145
 O         3.116959         0.544464        -1.707383
 C         2.821446        -1.669617        -0.158374
 H         0.399508         1.827536         0.141142
 H         0.098773         1.062027        -1.352193
 H        -0.737578         0.311056         0.107519
 H         1.009835        -1.923062         1.392404
 H         2.197309         0.036078         2.838346
 H         3.631038        -0.812564         2.257854
 H         4.012526         1.942417         0.777070
 H         3.007152         0.129691        -2.533531
 H         2.354735        -2.292456        -0.844105
 H         3.859209        -1.913279         0.207285
