19
Iteration:  3404charge 0 multiplicity 1
 C         0.206678         0.741586        -0.365944
 C         1.384139         0.116404         0.107627
 C         1.806543        -1.212408         0.885017
 C         2.700360        -0.506223         1.886894
 C         2.701974         0.631105         0.788318
 O         2.942778         1.969457         0.931988
 C         2.767984        -0.147164        -0.520243
 O         3.229720         0.574427        -1.600918
 C         2.774420        -1.610905        -0.308526
 H         0.469952         1.678558        -0.870964
 H        -0.269866         0.138678        -1.127005
 H        -0.463558         0.787765         0.483328
 H         1.083732        -1.927531         1.115711
 H         1.996149        -0.128477         2.704358
 H         3.649047        -1.012392         2.157109
 H         3.374208         2.295792         0.038660
 H         2.519605         0.971380        -2.243726
 H         2.297952        -2.223709        -1.040873
 H         3.803765        -2.117519        -0.090296
