19
Iteration:  1406charge 0 multiplicity 1
 C         0.045411         0.677524        -0.344099
 C         1.333600        -0.052317         0.120527
 C         1.846769        -1.350754         0.745640
 C         2.614718        -0.491996         1.866794
 C         2.592131         0.536548         0.833864
 O         2.922360         1.861089         1.025139
 C         2.718583         0.030244        -0.539121
 O         3.453289         0.794646        -1.477434
 C         2.869191        -1.488077        -0.493579
 H        -0.860886         0.075027        -0.251675
 H        -0.114560         1.545001         0.285734
 H         0.133261         1.109189        -1.343690
 H         1.252173        -2.208679         1.099799
 H         1.961490        -0.269185         2.681930
 H         3.714032        -0.731608         2.175036
 H         3.682751         1.953054         0.393910
 H         2.902214         0.700481        -2.325694
 H         2.534405        -1.922724        -1.409465
 H         3.864765        -1.761483        -0.244668
