19
Iteration:  1400
 C         0.035624         0.695189        -0.344008
 C         1.322115        -0.013290         0.110276
 C         1.834577        -1.365019         0.744036
 C         2.668209        -0.523472         1.857536
 C         2.573649         0.528138         0.845470
 O         2.915484         1.855006         1.011193
 C         2.741453         0.017917        -0.526103
 O         3.450451         0.775224        -1.471286
 C         2.878469        -1.484111        -0.460424
 H        -0.847414         0.009020        -0.235940
 H        -0.218146         1.637180         0.262102
 H        -0.009147         1.077403        -1.382458
 H         1.143275        -2.159119         0.962235
 H         2.004992        -0.169321         2.700625
 H         3.679451        -0.634373         2.087198
 H         3.553241         2.131574         0.391055
 H         2.981660         0.782170        -2.230379
 H         2.549400        -1.826220        -1.541784
 H         3.985014        -1.885038        -0.265658
