19
Iteration:  2458
 C         0.049703         0.693646        -0.204196
 C         1.384750         0.111231         0.128854
 C         1.840680        -1.213010         0.950642
 C         2.597954        -0.300003         1.887916
 C         2.793430         0.617191         0.693813
 O         3.154027         2.011331         0.807540
 C         2.708094        -0.118071        -0.541795
 O         3.178028         0.345241        -1.752086
 C         2.801824        -1.561047        -0.194396
 H        -0.625335         0.155683         0.516031
 H         0.138508         1.807389         0.047552
 H        -0.182364         0.755638        -1.268257
 H         1.064847        -1.948630         1.313478
 H         1.748562         0.181976         2.496028
 H         3.312003        -0.400737         2.599574
 H         3.790399         2.160807         0.135531
 H         2.553491         0.315333        -2.422444
 H         2.247266        -2.262522        -0.898358
 H         3.854942        -1.921376         0.030560
