19
Iteration:  2899
 C         0.000720         0.633112        -0.163308
 C         1.378771         0.111205         0.042543
 C         1.800994        -1.173577         0.918738
 C         2.629104        -0.206910         1.894070
 C         2.691931         0.656534         0.720216
 O         3.276848         1.890450         0.839232
 C         2.745112        -0.154747        -0.574233
 O         3.211396         0.505422        -1.704030
 C         2.736168        -1.613918        -0.193572
 H        -0.512149         1.059109         0.683092
 H         0.033298         1.299696        -1.015308
 H        -0.481344        -0.211569        -0.618716
 H         0.987376        -1.862559         1.421107
 H         2.062875         0.095563         2.856536
 H         3.622518        -0.628690         2.233463
 H         3.390785         2.248991        -0.058797
 H         2.695327         0.319293        -2.454871
 H         2.194630        -2.197571        -0.957058
 H         3.737121        -2.161846         0.104579
