19
Iteration:  1227charge 0 multiplicity 1
 C         0.038010         0.659726        -0.408530
 C         1.376314         0.098596         0.086391
 C         1.815127        -1.342996         0.764894
 C         2.668633        -0.671431         1.765005
 C         2.557910         0.572698         0.867604
 O         2.936999         1.876320         1.104314
 C         2.808107         0.036790        -0.570840
 O         3.350961         0.919605        -1.469375
 C         2.902965        -1.549221        -0.417006
 H        -0.346838         1.599660        -0.051212
 H         0.021794         0.729618        -1.500990
 H        -0.752826        -0.114694        -0.110848
 H         1.112840        -2.138517         1.014637
 H         2.139367        -0.476054         2.738494
 H         3.622830        -1.203598         1.990023
 H         3.400360         2.213260         0.333971
 H         3.129183         0.574708        -2.283935
 H         2.535199        -2.217441        -1.201085
 H         3.851981        -2.023804        -0.031048
