19
Iteration:  2838charge 0 multiplicity 1
 C         0.131348         0.669125        -0.356657
 C         1.361999         0.057636         0.188056
 C         1.869103        -1.262527         1.029577
 C         2.691454        -0.304974         1.935336
 C         2.738222         0.644298         0.788954
 O         3.195591         2.008462         0.699405
 C         2.663536        -0.102329        -0.517443
 O         3.174507         0.474274        -1.652364
 C         2.683168        -1.623293        -0.232539
 H        -0.914821         0.332875        -0.013977
 H         0.120255         1.747653        -0.031034
 H         0.100569         0.518298        -1.484320
 H         1.179717        -1.732627         1.632823
 H         2.074084         0.070989         2.685465
 H         3.667219        -0.693265         2.188274
 H         3.603455         2.113244        -0.118179
 H         2.343348         0.431912        -2.258739
 H         1.914693        -1.967246        -0.994088
 H         3.658019        -2.169654        -0.286755
