19
Iteration:  3120charge 0 multiplicity 1
 C         0.038101         0.608085        -0.335415
 C         1.359411         0.094647         0.067324
 C         1.799996        -1.229072         0.992493
 C         2.738495        -0.414191         1.995858
 C         2.592644         0.672619         0.749885
 O         3.207011         1.993262         0.830417
 C         2.733700        -0.105080        -0.604744
 O         3.297644         0.625349        -1.659395
 C         2.660732        -1.622376        -0.244358
 H        -0.310199         0.272240        -1.352213
 H        -0.721223         0.159243         0.329243
 H        -0.045331         1.732758        -0.291311
 H         1.188726        -1.942952         1.491856
 H         2.085099        -0.147396         2.870911
 H         3.730065        -0.821300         2.078171
 H         3.742703         2.035155         0.048439
 H         2.712850         0.500761        -2.445894
 H         2.168169        -2.310885        -0.914578
 H         3.630734        -2.108721         0.089780
