19
Iteration:  3633
 C         0.070567         0.697257        -0.306428
 C         1.363030         0.081289         0.142822
 C         1.752019        -1.221892         0.867599
 C         2.688736        -0.443044         1.841153
 C         2.701126         0.638829         0.806361
 O         3.033967         1.982059         0.981797
 C         2.792669        -0.085025        -0.560321
 O         3.342452         0.500510        -1.722295
 C         2.694521        -1.585346        -0.250405
 H        -0.206262         1.616752         0.301871
 H         0.175722         1.050986        -1.418845
 H        -0.747494        -0.038829        -0.265139
 H         1.138880        -2.008407         1.192699
 H         2.099417         0.140215         2.566717
 H         3.667635        -0.833221         1.942759
 H         3.735867         2.239619         0.441975
 H         2.646095         0.573576        -2.296978
 H         2.354792        -2.117999        -1.139907
 H         3.689120        -2.017109         0.131200
