19
Iteration:  2670
 C         0.093483         0.707426        -0.279610
 C         1.378371         0.139144         0.265284
 C         1.796096        -1.247538         1.044993
 C         2.768874        -0.318133         1.864627
 C         2.719807         0.683985         0.722648
 O         3.108685         2.018230         0.567319
 C         2.640738        -0.209284        -0.541502
 O         3.280389         0.475227        -1.593353
 C         2.655531        -1.630252        -0.145904
 H         0.026795         0.663668        -1.386561
 H        -0.830832         0.202395         0.049085
 H         0.093736         1.844647        -0.016692
 H         1.198919        -1.999391         1.660255
 H         2.307857        -0.095491         2.897173
 H         3.719117        -0.793385         1.999834
 H         3.623588         2.042174        -0.358613
 H         2.735946         0.349219        -2.481304
 H         1.961049        -2.162939        -0.966399
 H         3.633110        -2.133867        -0.052384
