19
Iteration:  2375
 C         0.136466         0.617129        -0.374381
 C         1.366737         0.069898         0.188615
 C         1.815060        -1.205835         1.037610
 C         2.748635        -0.370896         1.977918
 C         2.637211         0.703046         0.820994
 O         3.132574         1.986545         0.680776
 C         2.728173        -0.144830        -0.553991
 O         3.257732         0.599171        -1.658428
 C         2.611368        -1.620254        -0.238919
 H        -0.171295         1.426765         0.264205
 H         0.323887         1.113342        -1.312125
 H        -0.695628        -0.129479        -0.197794
 H         1.345491        -2.071313         1.664068
 H         2.224655        -0.093967         2.824965
 H         3.776706        -0.788329         2.087548
 H         3.313323         2.054486        -0.216534
 H         2.904602         0.153025        -2.541923
 H         1.962540        -2.113921        -0.988929
 H         3.575690        -2.179434        -0.140888
