19
Iteration:  2105
 C         0.137059         0.692452        -0.304909
 C         1.367293         0.081632         0.100988
 C         1.859435        -1.304667         0.976674
 C         2.714194        -0.374213         1.836250
 C         2.639641         0.632803         0.752079
 O         3.005533         1.962704         0.804255
 C         2.734269        -0.126368        -0.517340
 O         3.336690         0.639774        -1.561577
 C         2.669608        -1.627602        -0.310786
 H        -0.601292        -0.189255        -0.173978
 H        -0.168915         1.630568         0.263671
 H         0.103216         0.932889        -1.408466
 H         1.213316        -2.043927         1.477928
 H         2.289732        -0.045967         2.875537
 H         3.730067        -0.780023         2.147509
 H         3.543456         2.231157         0.072096
 H         2.659757         0.686956        -2.367395
 H         2.007077        -2.280725        -0.964593
 H         3.619145        -2.152131        -0.105658
