19
Iteration:  2605
 C         0.032087         0.721619        -0.322536
 C         1.393798         0.130052         0.193712
 C         1.853861        -1.151965         0.939298
 C         2.677527        -0.213284         2.020538
 C         2.718579         0.682349         0.776931
 O         3.251585         1.953040         0.841238
 C         2.660117        -0.170678        -0.581543
 O         3.084363         0.294675        -1.790186
 C         2.812174        -1.616265        -0.202722
 H         0.007077         0.654660        -1.421390
 H        -0.781669         0.282180         0.166075
 H         0.243006         1.825727        -0.219935
 H         1.246851        -1.907177         1.429470
 H         1.964532         0.196740         2.751066
 H         3.663663        -0.501611         2.203797
 H         3.448642         2.303491        -0.116014
 H         2.332716         0.184465        -2.509789
 H         2.235577        -2.318424        -0.946516
 H         3.817269        -1.958496         0.057351
