19
Iteration:  2413charge 0 multiplicity 1
 C         0.121896         0.724004        -0.357177
 C         1.373889         0.028366         0.153313
 C         1.802825        -1.219710         1.019256
 C         2.759860        -0.294381         1.842104
 C         2.701860         0.653134         0.720864
 O         3.126032         1.968771         0.786819
 C         2.712822        -0.146792        -0.528695
 O         3.142346         0.498226        -1.678787
 C         2.728236        -1.646444        -0.128531
 H        -0.529416         0.982689         0.543270
 H         0.274100         1.676007        -0.991418
 H        -0.388803         0.163608        -1.157215
 H         1.228012        -1.845597         1.678364
 H         2.250929         0.091512         2.785878
 H         3.574121        -0.896930         2.131146
 H         3.589741         2.199444         0.009269
 H         2.550601         0.520596        -2.399155
 H         2.348098        -2.073853        -1.074997
 H         3.718357        -2.156633         0.186436
