19
Iteration:  1220charge 0 multiplicity 1
 C         0.050866         0.630805        -0.380283
 C         1.357992         0.065290         0.057123
 C         1.801114        -1.327967         0.673778
 C         2.697738        -0.640868         1.816589
 C         2.573900         0.570284         0.842274
 O         2.956101         1.890380         1.120689
 C         2.765140         0.015050        -0.604848
 O         3.352620         0.935415        -1.456745
 C         2.869468        -1.542708        -0.383379
 H        -0.105631         1.627114         0.042753
 H         0.009250         0.563342        -1.455937
 H        -0.762022        -0.085854        -0.193098
 H         1.094539        -2.206530         0.928428
 H         2.109613        -0.526127         2.650592
 H         3.624999        -1.098888         1.975054
 H         3.529694         2.194284         0.459902
 H         3.137106         0.656118        -2.307469
 H         2.589912        -2.349217        -1.118439
 H         3.762820        -1.896808         0.245454
