19
Iteration:  4524charge 0 multiplicity 1
 C         0.058411         0.627455        -0.224271
 C         1.458534         0.136511         0.125102
 C         1.750727        -1.031473         1.093618
 C         2.682843        -0.125696         1.907566
 C         2.758058         0.645073         0.629898
 O         3.397527         1.932958         0.602037
 C         2.710430        -0.224664        -0.588844
 O         3.080316         0.316172        -1.805821
 C         2.535515        -1.703432         0.005325
 H         0.037253         1.003625        -1.329963
 H        -0.660187        -0.101842        -0.016344
 H        -0.134947         1.504667         0.475770
 H         1.021732        -1.592803         1.681073
 H         2.206750         0.406836         2.775523
 H         3.592875        -0.635579         2.224413
 H         2.893095         2.714616         0.243295
 H         3.891146         0.704676        -1.682907
 H         1.872702        -2.330996        -0.557686
 H         3.512135        -2.242341         0.139911
