19
Iteration:  2256
 C         0.128191         0.775971        -0.245779
 C         1.338306         0.051992         0.132546
 C         1.796445        -1.276222         1.004549
 C         2.739145        -0.330945         1.904191
 C         2.676774         0.609645         0.688076
 O         2.975476         1.935704         0.740001
 C         2.733089        -0.164170        -0.527762
 O         3.282130         0.603989        -1.600003
 C         2.766758        -1.650708        -0.246435
 H         0.429177         1.440477        -1.086451
 H        -0.635127         0.040326        -0.717753
 H        -0.331353         1.387324         0.605033
 H         1.039781        -1.996743         1.376645
 H         2.271276         0.244456         2.750480
 H         3.786735        -0.656169         2.183714
 H         3.516413         2.158039        -0.028874
 H         3.002444         0.135714        -2.477045
 H         2.196493        -2.058133        -1.082872
 H         3.781140        -2.203966        -0.178702
