19
Iteration:   925charge 0 multiplicity 1
 C         0.031079         0.729691        -0.390617
 C         1.407040         0.067321         0.031890
 C         1.829691        -1.376243         0.608405
 C         2.599453        -0.739408         1.843614
 C         2.594014         0.480603         0.908829
 O         2.787459         1.946681         1.239246
 C         2.825867        -0.023562        -0.576445
 O         3.384268         0.896563        -1.510785
 C         3.040516        -1.479732        -0.451590
 H        -0.792869         0.007722        -0.384861
 H        -0.173419         1.527289         0.283997
 H         0.186574         1.155823        -1.406621
 H         1.192549        -2.257867         0.768777
 H         2.097123        -0.485687         2.745693
 H         3.484759        -1.252962         1.991119
 H         3.190363         2.325288         0.389697
 H         2.820993         0.739476        -2.301202
 H         2.724551        -1.970169        -1.360457
 H         3.914630        -1.863202         0.039034
