19
Iteration:  2124
 C         0.000031         0.665535        -0.342993
 C         1.379271         0.118873         0.150711
 C         1.824971        -1.167794         0.884429
 C         2.752679        -0.452292         1.893655
 C         2.644464         0.630713         0.842074
 O         3.072283         2.002679         0.844049
 C         2.674364        -0.171246        -0.663716
 O         3.275466         0.609324        -1.592228
 C         2.804220        -1.656980        -0.223638
 H        -0.818700        -0.069681        -0.433984
 H        -0.430741         1.376578         0.429698
 H         0.162923         1.101823        -1.268016
 H         0.892776        -1.718642         1.237647
 H         2.291183        -0.154488         2.887664
 H         3.854839        -0.801827         2.180173
 H         3.663255         1.997135         0.055283
 H         3.036266         0.477126        -2.560044
 H         2.394278        -2.188602        -1.027600
 H         3.756244        -2.094945         0.080517
