19
Iteration:  4124
 C         0.046490         0.734129        -0.253570
 C         1.403969         0.080878         0.130153
 C         1.725984        -1.185293         0.992842
 C         2.642203        -0.225142         1.976487
 C         2.702310         0.674747         0.749849
 O         3.194640         1.893920         0.698744
 C         2.775271        -0.228330        -0.613409
 O         3.214508         0.540994        -1.695503
 C         2.684323        -1.658231        -0.172594
 H        -0.815009         0.098238        -0.532316
 H        -0.275417         1.272643         0.773289
 H         0.354417         1.511261        -0.988083
 H         0.987245        -1.827120         1.462205
 H         2.194841         0.180013         2.864282
 H         3.635675        -0.606131         2.191773
 H         3.471217         2.106978        -0.255346
 H         3.665586        -0.003674        -2.490148
 H         2.180908        -2.482233        -0.815659
 H         3.613306        -2.206921         0.108931
