19
Iteration:  2954charge 0 multiplicity 1
 C         0.092435         0.785909        -0.188948
 C         1.399392         0.139808         0.191721
 C         1.774352        -1.153002         0.934745
 C         2.800444        -0.355757         1.855752
 C         2.600111         0.607427         0.748978
 O         2.948140         1.962985         0.681019
 C         2.804720        -0.226336        -0.592743
 O         3.315982         0.517188        -1.619451
 C         2.711904        -1.667505        -0.236894
 H         0.005327         1.782389         0.207591
 H        -0.113283         0.983266        -1.237640
 H        -0.752382         0.221897         0.192606
 H         1.006736        -1.857565         1.508022
 H         2.343721        -0.139932         2.909852
 H         3.795522        -0.878965         1.868420
 H         3.804052         2.050817         0.290122
 H         2.925799         0.379804        -2.514535
 H         2.211471        -2.330503        -0.964071
 H         3.671206        -2.145237         0.290311
