19
Iteration:  4806
 C         0.204773         0.870085        -0.137915
 C         1.487502         0.260814         0.160364
 C         1.763034        -1.022542         1.167496
 C         2.736821        -0.106781         1.960209
 C         2.825004         0.692270         0.649189
 O         3.275504         2.011159         0.369566
 C         2.662057        -0.306652        -0.587023
 O         2.944557        -0.020807        -1.881891
 C         2.614136        -1.704821         0.089045
 H         0.148360         1.750443        -0.750578
 H        -0.399202         0.043668        -0.678651
 H        -0.454558         1.026841         0.724858
 H         0.945014        -1.546175         1.679532
 H         2.354072         0.366243         2.816214
 H         3.619857        -0.673137         2.243398
 H         2.598136         2.712407         0.536367
 H         3.841353         0.175262        -1.894255
 H         2.048776        -2.460295        -0.583706
 H         3.585352        -2.129829         0.551475
