19
Iteration:  4154
 C         0.137378         0.756793        -0.219594
 C         1.419246         0.132076         0.210485
 C         1.748837        -1.192614         0.942984
 C         2.694301        -0.287128         1.873203
 C         2.777330         0.683568         0.758860
 O         3.052874         2.066330         0.761782
 C         2.697943        -0.200771        -0.594779
 O         3.237446         0.312513        -1.721809
 C         2.663325        -1.639900        -0.226617
 H        -0.324524         0.506343        -1.206695
 H        -0.520482         0.745807         0.630393
 H         0.408139         1.860533        -0.249935
 H         1.022742        -1.712093         1.537723
 H         2.058980         0.087412         2.742603
 H         3.677210        -0.777615         2.190433
 H         3.461624         2.322918        -0.069191
 H         3.473572        -0.270326        -2.359465
 H         2.123457        -2.386497        -0.853100
 H         3.637766        -2.149613         0.150203
