19
Iteration:  2358charge 0 multiplicity 1
 C         0.023705         0.643550        -0.279973
 C         1.374321         0.104818         0.175781
 C         1.769370        -1.227992         0.972940
 C         2.725930        -0.328470         1.842736
 C         2.734979         0.668755         0.725619
 O         3.118385         1.980212         0.712512
 C         2.785831        -0.130227        -0.513328
 O         3.229374         0.547006        -1.599294
 C         2.733983        -1.626697        -0.189037
 H        -0.405401         1.588872         0.190642
 H         0.107575         0.729830        -1.417970
 H        -0.674515        -0.156325        -0.064100
 H         0.876666        -1.745532         1.251465
 H         2.316849         0.125344         2.831745
 H         3.649907        -0.885301         2.180566
 H         3.602020         2.071649        -0.073373
 H         2.783559         0.262965        -2.418703
 H         2.121530        -2.046737        -0.996524
 H         3.612273        -2.306105        -0.016592
