19
Iteration:  3364charge 0 multiplicity 1
 C         0.231248         0.702443        -0.440033
 C         1.386935         0.029940         0.217035
 C         1.856688        -1.267991         0.900477
 C         2.665583        -0.380283         1.836178
 C         2.654792         0.614733         0.750847
 O         3.066528         1.886648         0.892377
 C         2.686892        -0.070714        -0.516911
 O         3.162462         0.640814        -1.530751
 C         2.759054        -1.560833        -0.300516
 H         0.277222         1.781895        -0.188059
 H         0.234234         0.566028        -1.556924
 H        -0.813894         0.326389        -0.077939
 H         1.141152        -1.984502         1.410091
 H         2.199073        -0.188631         2.773532
 H         3.631646        -0.803270         2.152766
 H         3.509121         2.182090         0.127130
 H         2.798763         0.331354        -2.310296
 H         2.160744        -1.963464        -1.177244
 H         3.628601        -2.178862        -0.201179
