19
Iteration:  4723
 C         0.078298         0.701187        -0.239281
 C         1.412477         0.242639         0.291176
 C         1.733591        -1.053246         1.154209
 C         2.807064        -0.174397         1.937508
 C         2.731697         0.731770         0.690133
 O         3.389772         1.926121         0.256092
 C         2.657684        -0.256732        -0.534731
 O         3.082351         0.168948        -1.750716
 C         2.521486        -1.653820         0.044717
 H        -0.491263        -0.249475        -0.609974
 H        -0.526973         1.199577         0.473507
 H         0.416007         1.263730        -1.172697
 H         0.936252        -1.701147         1.629064
 H         2.429191         0.422469         2.923043
 H         3.780903        -0.777327         1.996727
 H         3.003050         2.743687         0.537711
 H         3.586903         0.896080        -1.497899
 H         1.893469        -2.245708        -0.562312
 H         3.441461        -2.221160         0.141659
