19
Iteration:   142
 C         0.159315         0.567212        -0.413005
 C         1.438099        -0.002810        -0.008551
 C         1.964936        -1.493870         0.317850
 C         2.422586        -0.952645         1.766785
 C         2.466024         0.451394         1.010527
 O         2.667554         1.747144         1.409881
 C         2.836185         0.219905        -0.502938
 O         3.457346         1.225562        -1.229737
 C         3.046259        -1.265144        -0.763611
 H         0.398872         1.443954        -1.121931
 H        -0.595579        -0.080677        -0.854573
 H        -0.315007         1.042237         0.456034
 H         1.417346        -2.397545         0.292323
 H         1.528271        -1.067043         2.419035
 H         3.245877        -1.197475         2.493808
 H         3.535043         1.935801         0.974057
 H         3.341048         1.122432        -2.117827
 H         2.683555        -1.659252        -1.721834
 H         4.080691        -1.667477        -0.466877
