19
Iteration:  2365charge 0 multiplicity 1
 C         0.075112         0.624020        -0.328025
 C         1.401657         0.095041         0.187935
 C         1.743014        -1.213525         1.061277
 C         2.717783        -0.369915         1.888773
 C         2.682928         0.643939         0.744704
 O         3.128618         1.994254         0.683257
 C         2.799543        -0.128638        -0.475826
 O         3.252238         0.596722        -1.639802
 C         2.677290        -1.597266        -0.242061
 H        -0.164097         1.500379         0.276878
 H        -0.063837         0.876646        -1.394932
 H        -0.769532        -0.134207        -0.254573
 H         1.134088        -2.091924         1.411913
 H         2.371361         0.003351         2.778501
 H         3.686197        -0.767864         2.092542
 H         3.523572         2.137192        -0.173219
 H         2.754225         0.072341        -2.414859
 H         1.985559        -2.116568        -0.904773
 H         3.612780        -2.255982        -0.058874
