19
Iteration:  2851charge 0 multiplicity 1
 C         0.080799         0.663297        -0.363002
 C         1.382236         0.149118         0.178160
 C         1.836662        -1.189694         1.030441
 C         2.711640        -0.271216         1.941192
 C         2.636570         0.703651         0.791998
 O         3.235721         1.882856         0.762215
 C         2.693190        -0.153048        -0.517612
 O         3.127001         0.475911        -1.708965
 C         2.748889        -1.586824        -0.244054
 H        -0.648194         0.141465         0.324943
 H         0.001920         1.799664        -0.283728
 H        -0.161376         0.466602        -1.425709
 H         1.182412        -1.962267         1.288629
 H         2.144104         0.085935         2.776948
 H         3.644361        -0.658344         2.435315
 H         3.812516         1.911473        -0.103812
 H         2.524423         0.324093        -2.467594
 H         2.133367        -2.204499        -0.938777
 H         3.812143        -2.112383        -0.168866
