19
Iteration:   833charge 0 multiplicity 1
 C        -0.067704         0.565977        -0.453065
 C         1.342136         0.059751         0.024402
 C         1.889816        -1.354854         0.615899
 C         2.678619        -0.665767         1.786742
 C         2.578195         0.580849         0.896245
 O         2.895510         1.851508         1.225945
 C         2.753248         0.036499        -0.572975
 O         3.468983         0.956948        -1.338233
 C         2.902696        -1.505854        -0.478804
 H        -0.706086         0.794872         0.435007
 H         0.120040         1.564200        -1.030743
 H        -0.650202         0.013439        -1.202577
 H         1.221640        -2.256361         0.787030
 H         1.900168        -0.524991         2.591844
 H         3.712997        -1.143119         1.914166
 H         3.325552         2.240741         0.443739
 H         3.305788         0.980946        -2.222793
 H         2.524557        -1.928828        -1.400380
 H         3.817763        -1.953313        -0.223339
