19
Iteration:   707
 C         0.205248         0.631166        -0.381989
 C         1.465962         0.081070         0.023496
 C         1.824857        -1.424510         0.507379
 C         2.555875        -0.735051         1.780258
 C         2.595274         0.515230         0.932158
 O         2.751685         1.909484         1.251672
 C         2.843885         0.051703        -0.524094
 O         3.340454         0.976979        -1.381736
 C         2.956766        -1.495854        -0.539113
 H         0.280966         1.379596        -1.192139
 H        -0.449207        -0.157450        -0.688798
 H        -0.182117         1.196198         0.509949
 H         1.053946        -2.168500         0.767271
 H         1.836608        -0.641768         2.526139
 H         3.484318        -1.149884         2.207572
 H         2.887410         2.318293         0.363701
 H         2.979235         0.804232        -2.194322
 H         2.720555        -1.965205        -1.503650
 H         3.864465        -1.959762        -0.179122
