19
Iteration:    36charge 0 multiplicity 1
 C         0.126541         0.559966        -0.575469
 C         1.406630         0.012656        -0.043911
 C         1.954609        -1.463427         0.340545
 C         2.504907        -0.922901         1.692588
 C         2.406880         0.428136         1.011859
 O         2.765572         1.649102         1.574202
 C         2.814631         0.198772        -0.543358
 O         3.342112         1.349864        -1.195600
 C         3.070549        -1.303371        -0.687732
 H        -0.598324        -0.187108        -0.556164
 H        -0.245135         1.382204         0.099320
 H         0.247112         0.915768        -1.638566
 H         1.374726        -2.265285         0.289775
 H         1.799324        -1.026802         2.422331
 H         3.478227        -1.295162         2.009233
 H         3.561798         1.912558         1.188942
 H         3.628806         1.163984        -2.064561
 H         2.837218        -1.721711        -1.685824
 H         4.089454        -1.650998        -0.329908
