19
Iteration:  2264charge 0 multiplicity 1
 C         0.139340         0.743111        -0.218874
 C         1.385870         0.047053         0.121507
 C         1.829160        -1.240679         0.967315
 C         2.698770        -0.346862         1.915110
 C         2.642630         0.595320         0.744808
 O         2.985369         1.954429         0.743511
 C         2.782997        -0.178534        -0.538510
 O         3.281279         0.620826        -1.675395
 C         2.720746        -1.666682        -0.195736
 H         0.309812         1.631696        -0.857157
 H        -0.555132         0.101382        -0.835572
 H        -0.382972         1.302654         0.688582
 H         0.904803        -1.858183         1.296338
 H         2.302653         0.108818         2.731971
 H         3.642087        -0.663731         2.184403
 H         3.464545         2.176865        -0.134239
 H         2.971597         0.166262        -2.528517
 H         2.197619        -2.234358        -1.085188
 H         3.810554        -2.055807        -0.003030
