19
Iteration:  4516charge 0 multiplicity 1
 C         0.099468         0.582848        -0.206361
 C         1.418148         0.140186         0.165449
 C         1.686947        -1.031947         1.050320
 C         2.700118        -0.114630         1.952130
 C         2.793545         0.729277         0.633777
 O         3.403226         1.889455         0.551444
 C         2.740010        -0.261643        -0.575456
 O         3.071354         0.341064        -1.812531
 C         2.564925        -1.662541        -0.006526
 H        -0.131878         0.985519        -1.278813
 H        -0.586410        -0.197711         0.228735
 H         0.047222         1.577243         0.344277
 H         0.881736        -1.685497         1.340705
 H         2.134757         0.370988         2.777541
 H         3.373931        -0.792619         2.354872
 H         2.764312         2.635579         0.277917
 H         3.904251         0.732675        -1.667541
 H         1.832432        -2.217471        -0.613635
 H         3.484371        -2.370901         0.324806
