19
Iteration:  3839charge 0 multiplicity 1
 C         0.114158         0.698656        -0.336265
 C         1.330656         0.111130         0.153797
 C         1.759573        -1.233953         0.989680
 C         2.582877        -0.436806         1.934281
 C         2.771748         0.598606         0.754950
 O         3.231063         1.957839         0.713494
 C         2.743908        -0.101208        -0.576130
 O         3.127108         0.631388        -1.616016
 C         2.779870        -1.587989        -0.181689
 H         0.018029         0.381904        -1.391117
 H        -0.785415         0.308910         0.214546
 H        -0.104131         1.710266        -0.268643
 H         0.986607        -1.946819         1.251697
 H         1.834080        -0.059426         2.687110
 H         3.568003        -0.999990         2.327090
 H         3.884008         1.882479        -0.002268
 H         3.303214         0.051249        -2.283907
 H         2.172891        -2.118867        -1.001255
 H         3.726361        -1.896397         0.137432
