19
Iteration:  2472charge 0 multiplicity 1
 C         0.065392         0.727516        -0.128181
 C         1.374472        -0.002304         0.113131
 C         1.798896        -1.224464         0.967545
 C         2.594366        -0.186849         1.924661
 C         2.691100         0.718748         0.707920
 O         3.146520         1.993555         0.798993
 C         2.758377        -0.181960        -0.618274
 O         3.282621         0.405490        -1.766968
 C         2.765212        -1.623917        -0.204104
 H        -0.769453         0.193003         0.244126
 H         0.015511         1.702385         0.279091
 H        -0.224936         0.713716        -1.161989
 H         1.229834        -2.092650         1.409119
 H         1.995546         0.307243         2.722760
 H         3.489039        -0.753767         2.257905
 H         3.841625         2.202456         0.098421
 H         2.487944         0.266853        -2.452168
 H         2.196022        -2.171772        -0.996771
 H         3.632765        -2.160349         0.022279
