19
Iteration:  3691charge 0 multiplicity 1
 C         0.032642         0.767207        -0.137676
 C         1.325049         0.064496         0.104139
 C         1.768721        -1.254761         0.857059
 C         2.569156        -0.436830         1.863258
 C         2.651189         0.578239         0.791588
 O         3.087683         1.936518         0.676585
 C         2.759320        -0.132752        -0.505398
 O         3.379328         0.681955        -1.596140
 C         2.805725        -1.634386        -0.229198
 H        -0.697536         0.807257         0.639249
 H         0.192963         1.777173        -0.445867
 H        -0.511677         0.329609        -1.033887
 H         0.939423        -1.968828         1.273237
 H         2.246564        -0.055847         2.869607
 H         3.545707        -0.821872         2.184764
 H         3.685468         1.951640        -0.156696
 H         3.201761         0.220203        -2.523665
 H         2.521646        -2.191500        -1.061193
 H         3.789181        -2.040209         0.134184
