19
Iteration:  3297charge 0 multiplicity 1
 C        -0.036442         0.558061        -0.209004
 C         1.390801         0.183893         0.070819
 C         1.809208        -1.189347         0.844249
 C         2.555171        -0.359462         1.890248
 C         2.726910         0.656282         0.827276
 O         3.184372         1.979285         0.949469
 C         2.649376        -0.147596        -0.599013
 O         3.361257         0.549367        -1.636901
 C         2.842489        -1.659924        -0.360553
 H        -0.468700         1.275150         0.529698
 H        -0.083067         1.110890        -1.174028
 H        -0.923751        -0.177494        -0.301321
 H         1.040931        -1.870747         1.133314
 H         1.810541        -0.070684         2.682878
 H         3.430610        -0.786854         2.429351
 H         3.606476         2.185253         0.059100
 H         2.864810         0.892887        -2.490152
 H         2.230845        -2.195444        -1.093039
 H         3.850508        -2.010309        -0.247122
