19
Iteration:   287charge 0 multiplicity 1
 C         0.120488         0.592838        -0.565416
 C         1.345181        -0.020494         0.033027
 C         1.910245        -1.514985         0.420692
 C         2.479139        -0.835353         1.792318
 C         2.409834         0.495147         1.010996
 O         2.884280         1.721393         1.454524
 C         2.737416         0.140904        -0.539284
 O         3.398757         1.175612        -1.264488
 C         3.098595        -1.289769        -0.684380
 H        -0.745239        -0.033110        -0.477644
 H        -0.219018         1.525567        -0.093263
 H         0.369892         0.903200        -1.619615
 H         1.328051        -2.373681         0.515238
 H         1.685353        -0.839381         2.568386
 H         3.532475        -1.007365         2.172765
 H         3.321246         2.099548         0.642346
 H         3.187627         1.046949        -2.193000
 H         2.878526        -1.723614        -1.712515
 H         4.241594        -1.448783        -0.333144
