19
Iteration:  1213charge 0 multiplicity 1
 C         0.065034         0.571522        -0.361385
 C         1.363502         0.013154         0.044087
 C         1.778685        -1.319814         0.592049
 C         2.659399        -0.574032         1.826196
 C         2.617238         0.565571         0.821632
 O         2.970116         1.896931         1.145308
 C         2.691334        -0.054411        -0.599325
 O         3.358463         0.940459        -1.451618
 C         2.867360        -1.539486        -0.340558
 H         0.069216         1.636921         0.053069
 H         0.030804         0.708929        -1.517014
 H        -0.803564         0.057378         0.029297
 H         1.120766        -2.094733         0.824496
 H         2.018895        -0.470728         2.868056
 H         3.773074        -0.941973         2.065147
 H         3.704275         2.124988         0.516647
 H         3.154348         0.870602        -2.468435
 H         2.681040        -2.146155        -1.224494
 H         3.803999        -1.772286         0.067743
