19
Iteration:  1884charge 0 multiplicity 1
 C         0.155643         0.656016        -0.300822
 C         1.370809         0.029287         0.120316
 C         1.812631        -1.325786         0.904620
 C         2.578553        -0.358520         1.828984
 C         2.645150         0.611777         0.723431
 O         3.074792         1.969587         1.090362
 C         2.782346        -0.086690        -0.628581
 O         3.277761         0.657626        -1.707477
 C         2.797054        -1.598067        -0.317479
 H         0.062992         0.870656        -1.387516
 H        -0.702922        -0.023743         0.055816
 H         0.036533         1.529600         0.319701
 H         1.181647        -2.100686         1.270231
 H         1.839870         0.141109         2.595732
 H         3.387237        -0.855121         2.377533
 H         3.236407         2.217757         0.207624
 H         2.676186         0.549396        -2.360286
 H         2.423751        -2.296712        -1.160804
 H         3.843359        -1.886971         0.085896
