19
Iteration:  4876
 C         0.120942         0.791382        -0.137284
 C         1.406736         0.175827         0.231862
 C         1.730960        -0.997412         1.279756
 C         2.856561        -0.094538         1.924887
 C         2.777456         0.724444         0.634389
 O         3.334765         2.034714         0.283152
 C         2.598526        -0.306140        -0.589563
 O         2.977500         0.049338        -1.818632
 C         2.542690        -1.701938         0.112564
 H        -0.511501         1.267570         0.723976
 H         0.444808         1.535838        -0.824878
 H        -0.425405         0.048577        -0.755934
 H         0.797775        -1.539219         1.589090
 H         2.441067         0.513235         2.734532
 H         3.673312        -0.678037         2.270294
 H         3.872366         1.973766        -0.495672
 H         3.926803         0.204838        -1.739103
 H         2.048427        -2.392122        -0.540314
 H         3.647624        -2.074966         0.200259
