19
Iteration:  4118
 C         0.042930         0.735988        -0.230329
 C         1.399303         0.074051         0.128443
 C         1.712628        -1.140350         0.994266
 C         2.676501        -0.233711         1.930448
 C         2.677638         0.670544         0.766625
 O         3.237202         1.892903         0.688108
 C         2.680361        -0.238666        -0.614160
 O         3.225077         0.551879        -1.666966
 C         2.721340        -1.688025        -0.178282
 H        -0.797433         0.072461        -0.458175
 H        -0.345524         1.365850         0.491125
 H         0.322452         1.300872        -1.128249
 H         1.041169        -1.914867         1.421794
 H         2.007468         0.152917         2.768783
 H         3.635171        -0.556651         2.487341
 H         3.528945         1.927509        -0.237154
 H         3.613824         0.054653        -2.328251
 H         2.215659        -2.345761        -0.832222
 H         3.780025        -2.016534         0.001666
