19
Iteration:  4796
 C         0.147979         0.873604        -0.165520
 C         1.450304         0.151580         0.164847
 C         1.714336        -0.996700         1.173132
 C         2.736128        -0.072544         2.009908
 C         2.827981         0.688832         0.662592
 O         3.315833         1.981055         0.351095
 C         2.700408        -0.257410        -0.551118
 O         2.931384        -0.023051        -1.906101
 C         2.661350        -1.651925         0.065645
 H         0.304326         1.520817        -1.031145
 H        -0.577674         0.058656        -0.455018
 H        -0.137593         1.429690         0.746445
 H         1.112325        -1.813727         1.605550
 H         2.279574         0.388553         2.808740
 H         3.640875        -0.560896         2.311068
 H         2.646315         2.460647         0.846468
 H         3.726367         0.388809        -2.038185
 H         2.003220        -2.366555        -0.545839
 H         3.511847        -2.359382         0.381473
