19
Iteration:  2293charge 0 multiplicity 1
 C         0.051355         0.721510        -0.161080
 C         1.460787         0.094822         0.118453
 C         1.800208        -1.252211         0.900119
 C         2.570430        -0.344809         1.881264
 C         2.701196         0.642544         0.710646
 O         3.096952         2.057255         0.803592
 C         2.724208        -0.165575        -0.566274
 O         3.272864         0.423548        -1.683992
 C         2.841451        -1.621552        -0.217476
 H         0.063651         1.824265        -0.198550
 H        -0.449528         0.314087        -1.036031
 H        -0.644187         0.465323         0.597228
 H         1.000848        -1.911974         1.192321
 H         1.932895         0.186934         2.714989
 H         3.513290        -0.829756         2.374431
 H         3.397233         2.340016        -0.041065
 H         2.527248         0.512169        -2.423036
 H         2.459286        -2.257084        -1.011201
 H         3.821572        -1.922914         0.019985
