19
Iteration:  3254charge 0 multiplicity 1
 C         0.073759         0.721500        -0.182664
 C         1.352430         0.061454         0.096608
 C         1.778749        -1.201652         0.850157
 C         2.687700        -0.424331         1.851334
 C         2.662705         0.619093         0.769852
 O         3.003535         1.981001         0.765853
 C         2.738933        -0.138628        -0.601879
 O         3.380424         0.578540        -1.505411
 C         2.797642        -1.596551        -0.305291
 H        -0.594191         0.499864         0.695903
 H         0.209311         1.794944        -0.423702
 H        -0.584463         0.236048        -1.018616
 H         1.003238        -1.871521         1.175177
 H         2.137905        -0.056920         2.776096
 H         3.639308        -1.058442         2.129016
 H         3.611798         2.057115         0.079949
 H         2.724078         0.487410        -2.264325
 H         2.175676        -2.273259        -0.985208
 H         3.762872        -1.940708         0.023849
