19
Iteration:   363charge 0 multiplicity 1
 C         0.097020         0.610101        -0.496397
 C         1.406822         0.011433        -0.016335
 C         1.916027        -1.496132         0.463017
 C         2.496138        -0.815725         1.822259
 C         2.503906         0.537998         0.962316
 O         2.716089         1.773244         1.416989
 C         2.852801         0.173604        -0.486144
 O         3.475431         1.082520        -1.339761
 C         3.016429        -1.355947        -0.678674
 H        -0.124920         0.540982        -1.588175
 H        -0.642828        -0.051875        -0.013928
 H        -0.125597         1.637738        -0.143835
 H         1.379353        -2.403170         0.506041
 H         1.805324        -0.707959         2.649998
 H         3.436443        -1.232443         2.151381
 H         3.463415         2.074594         0.907258
 H         2.936294         1.251303        -2.196274
 H         2.577856        -1.679139        -1.640210
 H         4.084701        -1.782447        -0.588561
