19
Iteration:  1008
 C         0.109350         0.546848        -0.350920
 C         1.406403         0.041446         0.032211
 C         1.774882        -1.368506         0.589886
 C         2.502582        -0.641898         1.848763
 C         2.522404         0.580126         0.913560
 O         2.981224         1.914266         1.162279
 C         2.769007        -0.002038        -0.530405
 O         3.411518         0.898558        -1.499926
 C         2.957388        -1.419065        -0.440927
 H        -0.105693         0.322570        -1.391468
 H        -0.748838         0.199664         0.289759
 H         0.012500         1.671034        -0.271574
 H         0.977030        -2.094593         0.585196
 H         1.932990        -0.557553         2.772708
 H         3.549333        -1.141120         2.078294
 H         3.683991         2.041860         0.381149
 H         2.573621         0.984956        -2.142149
 H         2.726886        -1.961269        -1.425115
 H         3.938912        -1.989320        -0.111879
