19
Iteration:  2454charge 0 multiplicity 1
 C         0.053108         0.704876        -0.203962
 C         1.412883         0.136015         0.122405
 C         1.833705        -1.208121         0.973784
 C         2.587148        -0.311591         1.886072
 C         2.793315         0.638157         0.741046
 O         3.147228         1.994688         0.807684
 C         2.670545        -0.123501        -0.573632
 O         3.171162         0.348240        -1.751582
 C         2.831871        -1.570747        -0.211606
 H        -0.648100         0.152745         0.467351
 H         0.142496         1.805921        -0.032495
 H        -0.183595         0.646168        -1.324619
 H         1.050473        -1.807030         1.323686
 H         1.798325         0.100033         2.464009
 H         3.414878        -0.455409         2.694360
 H         3.815443         2.152380         0.055149
 H         2.414972         0.280690        -2.490167
 H         2.380874        -2.219097        -0.924606
 H         3.860294        -2.015121         0.148626
