19
Iteration:  2763charge 0 multiplicity 1
 C         0.092621         0.776481        -0.139418
 C         1.332064         0.146010         0.176075
 C         1.875075        -1.190314         0.990065
 C         2.631085        -0.236712         1.905284
 C         2.644606         0.685314         0.741926
 O         3.121220         1.966103         0.752046
 C         2.706162        -0.222922        -0.628514
 O         3.254173         0.365853        -1.730650
 C         2.754209        -1.625193        -0.253748
 H        -0.800228         0.145111        -0.412423
 H        -0.352407         1.432756         0.667221
 H         0.291627         1.452298        -0.983195
 H         1.349458        -1.990336         1.359006
 H         1.824425        -0.133127         2.598026
 H         3.620637        -0.679186         2.446530
 H         3.675042         2.166621        -0.018489
 H         3.069532        -0.043235        -2.504655
 H         2.370746        -2.369952        -1.017068
 H         3.841125        -1.970759         0.111306
