19
Iteration:  2880
 C         0.017666         0.582182        -0.287198
 C         1.346832         0.089751         0.129123
 C         1.704221        -1.153563         1.005762
 C         2.667070        -0.342943         1.803221
 C         2.755970         0.719875         0.709281
 O         3.325374         1.941236         0.850601
 C         2.675491        -0.130889        -0.605600
 O         3.177410         0.544912        -1.751605
 C         2.804108        -1.660379        -0.078279
 H        -0.526471         0.712439         0.688594
 H        -0.068265         1.647816        -0.477913
 H        -0.682292         0.024645        -0.997436
 H         0.917529        -1.902007         1.282622
 H         2.074050         0.237568         2.582448
 H         3.446856        -0.860603         2.332330
 H         3.708717         2.329262        -0.018686
 H         2.609532         0.310968        -2.396657
 H         2.396976        -2.371033        -0.842346
 H         3.759347        -1.842007         0.236181
