19
Iteration:  2567charge 0 multiplicity 1
 C         0.122993         0.649063        -0.205088
 C         1.332719         0.044617         0.188790
 C         1.762476        -1.140357         0.988367
 C         2.695426        -0.242006         1.878171
 C         2.799625         0.672325         0.682902
 O         3.167524         2.009185         0.736695
 C         2.705948        -0.175651        -0.583948
 O         3.187846         0.459837        -1.738979
 C         2.703943        -1.674195        -0.143844
 H        -0.352150         0.276378        -1.180885
 H        -0.703698         0.756267         0.598863
 H         0.230958         1.713807        -0.535849
 H         1.113138        -1.956172         1.417410
 H         2.076590         0.295109         2.727753
 H         3.622043        -0.851219         2.221138
 H         3.757750         2.148345         0.019240
 H         2.544586         0.375751        -2.400899
 H         2.278773        -2.467095        -0.814618
 H         3.599438        -2.086927         0.407003
