19
Iteration:  3366charge 0 multiplicity 1
 C         0.239115         0.706425        -0.436644
 C         1.378132         0.024325         0.232194
 C         1.872042        -1.270896         0.902005
 C         2.654099        -0.396887         1.844692
 C         2.636167         0.629121         0.751533
 O         3.060801         1.879313         0.883053
 C         2.701434        -0.080455        -0.506743
 O         3.173150         0.654075        -1.546682
 C         2.758647        -1.562637        -0.301851
 H         0.248959         1.772882        -0.214495
 H         0.223183         0.550945        -1.536503
 H        -0.761991         0.400538        -0.096208
 H         1.131501        -1.965598         1.435833
 H         2.184322        -0.192363         2.770447
 H         3.683200        -0.846851         2.135527
 H         3.542327         2.270768         0.097401
 H         2.735803         0.311803        -2.362467
 H         2.127645        -1.917629        -1.188971
 H         3.591525        -2.191483        -0.141918
