19
Iteration:  2848
 C         0.090144         0.666079        -0.364298
 C         1.379064         0.140989         0.163695
 C         1.848650        -1.208728         1.039249
 C         2.725050        -0.267828         1.936144
 C         2.656496         0.704621         0.783831
 O         3.223572         1.888555         0.747801
 C         2.673492        -0.119877        -0.470496
 O         3.135423         0.472184        -1.704339
 C         2.753301        -1.606609        -0.242274
 H        -0.631349         0.117691         0.283564
 H         0.082216         1.760629        -0.254321
 H        -0.129831         0.508321        -1.460997
 H         1.101864        -1.917177         1.348221
 H         2.097903         0.059368         2.736397
 H         3.575041        -0.694323         2.405538
 H         3.725143         1.887083        -0.048444
 H         2.484101         0.351762        -2.513653
 H         2.070937        -2.177215        -0.932240
 H         3.697324        -2.056641        -0.313693
