19
Iteration:  2185
 C         0.104243         0.603359        -0.258283
 C         1.450288         0.121457         0.125658
 C         1.763721        -1.249993         0.909838
 C         2.569856        -0.314463         1.907837
 C         2.688901         0.668929         0.766583
 O         3.178088         2.007624         0.908145
 C         2.715618        -0.211212        -0.612153
 O         3.242773         0.598726        -1.705348
 C         2.792640        -1.661543        -0.253271
 H        -0.209380         0.293194        -1.297556
 H        -0.606743         0.058434         0.406764
 H        -0.109272         1.759908        -0.066678
 H         0.996127        -1.922710         1.314241
 H         1.972595         0.181715         2.661962
 H         3.481520        -0.669819         2.297197
 H         3.331468         2.275710         0.044605
 H         2.736824         0.685266        -2.632980
 H         2.255334        -2.357652        -1.016588
 H         3.730558        -2.167406         0.104154
