19
Iteration:  2265
 C         0.140781         0.741618        -0.217885
 C         1.405954         0.042363         0.124207
 C         1.829724        -1.232893         0.959069
 C         2.692079        -0.346888         1.911318
 C         2.635995         0.598016         0.758060
 O         2.989931         1.959527         0.741888
 C         2.787395        -0.176948        -0.550553
 O         3.281361         0.620967        -1.682268
 C         2.713965        -1.666132        -0.191875
 H         0.306785         1.665224        -0.819539
 H        -0.589768         0.092760        -0.851051
 H        -0.414371         1.269723         0.720609
 H         0.917248        -1.852262         1.300156
 H         2.257357         0.072113         2.762771
 H         3.642457        -0.701551         2.190475
 H         3.425895         2.158532        -0.104175
 H         2.949476         0.151551        -2.575471
 H         2.198059        -2.275114        -1.045270
 H         3.822673        -2.064921         0.053044
