19
Iteration:  1971
 C         0.060964         0.647065        -0.305482
 C         1.400863         0.128178         0.100710
 C         1.876761        -1.228496         0.910349
 C         2.698381        -0.427784         1.842617
 C         2.642714         0.651422         0.794978
 O         3.020706         1.961833         0.859255
 C         2.743571        -0.141015        -0.528976
 O         3.355217         0.635705        -1.546686
 C         2.734084        -1.623275        -0.314200
 H        -0.247354         1.617634         0.138528
 H        -0.168235         0.483268        -1.442938
 H        -0.818083         0.101347         0.033674
 H         0.975435        -1.809392         1.130854
 H         2.166895        -0.361917         2.801061
 H         3.577611        -0.949439         1.947559
 H         3.446927         2.158343        -0.086775
 H         2.768207         0.882930        -2.342005
 H         2.075341        -2.187394        -1.028432
 H         3.656787        -2.249420        -0.051544
