19
Iteration:    31
 C         0.114631         0.582212        -0.578008
 C         1.394120         0.010164        -0.038894
 C         1.925852        -1.432980         0.342587
 C         2.553602        -0.947065         1.659952
 C         2.419075         0.408515         0.983686
 O         2.752182         1.653005         1.569642
 C         2.831707         0.227439        -0.552367
 O         3.329412         1.345591        -1.167354
 C         3.089356        -1.314262        -0.663855
 H        -0.573195        -0.365673        -0.470691
 H        -0.137866         1.492475        -0.065077
 H         0.078731         0.895595        -1.601688
 H         1.176742        -2.416031         0.256866
 H         1.698374        -1.010660         2.509728
 H         3.553550        -1.347671         1.957845
 H         3.647469         2.093579         1.230642
 H         3.673029         1.200820        -2.137921
 H         2.974556        -1.867242        -1.602185
 H         3.976440        -1.730119        -0.225323
