19
Iteration:   251charge 0 multiplicity 1
 C         0.146350         0.570818        -0.473154
 C         1.469215         0.032195        -0.085556
 C         1.812221        -1.441827         0.384888
 C         2.533558        -0.806242         1.754309
 C         2.509806         0.457541         0.936662
 O         2.699607         1.722731         1.436039
 C         2.931594         0.142015        -0.514509
 O         3.389772         1.284985        -1.220036
 C         3.018889        -1.491435        -0.638627
 H        -0.669844         0.289095         0.282601
 H         0.230940         1.666665        -0.646428
 H        -0.222624         0.059135        -1.315214
 H         1.042953        -2.190122         0.480711
 H         1.807833        -0.807058         2.525787
 H         3.510761        -1.155229         2.028930
 H         3.382139         2.188732         0.905242
 H         2.911193         1.407622        -2.027059
 H         2.813769        -1.833369        -1.654289
 H         4.025476        -1.979622        -0.284354
