19
Iteration:   798
 C         0.118757         0.464798        -0.405522
 C         1.433679        -0.011658         0.076684
 C         1.851281        -1.321606         0.563954
 C         2.564434        -0.623865         1.792761
 C         2.527357         0.577973         0.919102
 O         2.876834         1.830314         1.235619
 C         2.820517         0.067624        -0.541752
 O         3.446158         0.963944        -1.404793
 C         2.823095        -1.442649        -0.571746
 H        -0.211113         1.329423         0.307427
 H         0.393289         1.026085        -1.399393
 H        -0.659464        -0.289917        -0.450065
 H         1.199103        -2.147834         0.782854
 H         1.923202        -0.474368         2.780900
 H         3.493020        -0.982778         2.450222
 H         3.312994         2.406033         0.548256
 H         3.060392         1.014391        -2.233231
 H         2.234011        -1.765973        -1.481353
 H         3.745397        -2.030795        -0.489873
