19
Iteration:   497charge 0 multiplicity 1
 C         0.129708         0.569199        -0.493658
 C         1.377751         0.034109        -0.009266
 C         1.939474        -1.394255         0.576829
 C         2.542724        -0.684262         1.761648
 C         2.528951         0.552273         0.928548
 O         2.752721         1.815008         1.428963
 C         2.774449         0.079287        -0.605688
 O         3.433417         1.027419        -1.336190
 C         2.990984        -1.464929        -0.676218
 H        -0.123697         1.418839         0.070904
 H         0.161637         1.007939        -1.458952
 H        -0.724530        -0.238682        -0.409189
 H         1.203770        -2.322056         0.701672
 H         1.766939        -0.761313         2.580719
 H         3.503588        -0.992695         2.114538
 H         3.668188         1.854859         1.568895
 H         2.912407         1.261446        -2.213348
 H         2.580833        -1.837532        -1.641245
 H         3.987143        -1.842418        -0.470282
