19
Iteration:  1181
 C         0.027870         0.635491        -0.289724
 C         1.395337         0.068616         0.018356
 C         1.950775        -1.374921         0.628073
 C         2.431540        -0.568617         1.900079
 C         2.572705         0.553182         0.909131
 O         2.980280         1.850181         1.108219
 C         2.872529        -0.003270        -0.553397
 O         3.383509         0.881179        -1.543331
 C         2.902732        -1.499566        -0.458592
 H        -0.030440         1.755418        -0.412676
 H        -0.395184         0.233606        -1.281371
 H        -0.652528         0.418858         0.523499
 H         1.452461        -2.271707         0.828201
 H         1.448320        -0.511543         2.566004
 H         3.300905        -0.875785         2.591746
 H         3.564821         2.103266         0.336738
 H         2.727899         0.847730        -2.258413
 H         2.393354        -1.880204        -1.347060
 H         3.862415        -1.932128        -0.328045
