19
Iteration:  4594
 C         0.204430         0.872554        -0.252195
 C         1.501114         0.160039         0.179745
 C         1.826771        -1.034302         1.138391
 C         2.759186        -0.170215         1.907088
 C         2.793896         0.653385         0.664724
 O         3.154790         2.047449         0.576544
 C         2.724799        -0.334626        -0.567067
 O         2.960855         0.209542        -1.805661
 C         2.589705        -1.807804        -0.038184
 H         0.434623         1.928869         0.024048
 H         0.191061         0.609279        -1.381710
 H        -0.722354         0.564342         0.264405
 H         0.998357        -1.625411         1.572829
 H         2.245074         0.293400         2.727007
 H         3.683111        -0.528429         2.291179
 H         2.574197         2.219563        -0.207283
 H         3.881608         0.608747        -1.823716
 H         1.888317        -2.577561        -0.512764
 H         3.500645        -2.368521         0.398978
