19
Iteration:  4172charge 0 multiplicity 1
 C         0.107456         0.897288        -0.198043
 C         1.365813         0.120745         0.158504
 C         1.807273        -1.183743         1.040328
 C         2.764399        -0.316262         1.960404
 C         2.654892         0.699093         0.717985
 O         3.010662         2.022255         0.773434
 C         2.673077        -0.173744        -0.596253
 O         3.291332         0.255750        -1.798567
 C         2.730419        -1.631286        -0.209588
 H         0.069542         0.655997        -1.262816
 H        -0.753151         0.441097         0.240414
 H         0.161837         1.979230        -0.128377
 H         1.109614        -2.019668         1.334655
 H         2.202843         0.196427         2.750077
 H         3.721558        -0.735646         2.264648
 H         3.826676         2.147543         0.290519
 H         3.059280        -0.430049        -2.334349
 H         2.185566        -2.170861        -0.942499
 H         3.666841        -2.143939        -0.200575
