19
Iteration:  1586charge 0 multiplicity 1
 C        -0.032851         0.742798        -0.263299
 C         1.408443         0.068179         0.025408
 C         1.826622        -1.361529         0.761922
 C         2.608926        -0.521564         1.852342
 C         2.570020         0.636176         0.797753
 O         2.994000         1.903625         1.115243
 C         2.773283        -0.064307        -0.643111
 O         3.382836         0.704741        -1.603954
 C         2.925405        -1.536759        -0.347923
 H         0.020257         1.617327        -0.910892
 H        -0.713610        -0.072247        -0.675093
 H        -0.503552         0.915236         0.682669
 H         1.173129        -2.236207         1.066023
 H         1.879617        -0.336570         2.728455
 H         3.622715        -0.827962         2.147979
 H         3.346860         2.273627         0.288335
 H         2.949839         0.602251        -2.495955
 H         2.654910        -2.207651        -1.119774
 H         3.912254        -1.700148         0.010141
