19
Iteration:  1165
 C         0.116355         0.590066        -0.266998
 C         1.450247         0.023645         0.078249
 C         1.797270        -1.393495         0.652879
 C         2.438621        -0.629496         1.882663
 C         2.575152         0.579331         0.899358
 O         2.949529         1.926968         1.132553
 C         2.774556         0.031093        -0.570469
 O         3.418712         0.852369        -1.566784
 C         2.980111        -1.471505        -0.517914
 H         0.293343         1.576948        -0.723941
 H        -0.419896         0.003822        -1.000566
 H        -0.447208         0.759902         0.689418
 H         0.868813        -2.081804         0.743725
 H         1.686561        -0.325469         2.633406
 H         3.317041        -1.077895         2.403021
 H         3.149115         2.201888         0.266561
 H         2.890177         1.050077        -2.259593
 H         2.569138        -2.020648        -1.385360
 H         3.946604        -1.992373        -0.207800
