19
Iteration:  3063
 C         0.041757         0.690743        -0.318949
 C         1.314798         0.076310         0.051755
 C         1.876684        -1.219812         0.978046
 C         2.684790        -0.320931         1.930555
 C         2.612143         0.631460         0.772560
 O         3.161626         1.905950         0.810675
 C         2.721217        -0.087972        -0.555511
 O         3.288812         0.554266        -1.640497
 C         2.739923        -1.583815        -0.252884
 H         0.146774         0.915410        -1.390731
 H        -0.670461        -0.149107        -0.078221
 H        -0.162962         1.590330         0.272611
 H         1.153108        -1.973619         1.506366
 H         2.247577        -0.075535         2.913145
 H         3.636578        -0.702451         2.240876
 H         3.559785         2.017200        -0.019621
 H         2.571564         0.407181        -2.380040
 H         2.039460        -2.146366        -0.792634
 H         3.707677        -2.160880        -0.169588
