19
Iteration:   456
 C         0.063107         0.606696        -0.366926
 C         1.444787         0.070138        -0.070328
 C         1.901546        -1.364796         0.425601
 C         2.482652        -0.860142         1.820355
 C         2.464137         0.466461         0.981619
 O         2.751931         1.811446         1.345217
 C         2.858246         0.103461        -0.549575
 O         3.468606         1.070423        -1.364157
 C         3.064022        -1.364112        -0.590861
 H         0.009501         1.718162        -0.419903
 H        -0.265435         0.174538        -1.337486
 H        -0.639048         0.251906         0.446156
 H         1.220552        -2.182162         0.532534
 H         1.616399        -0.840294         2.537473
 H         3.405605        -1.384499         2.271934
 H         3.136498         2.286683         0.500618
 H         3.047877         0.974960        -2.168453
 H         2.821498        -1.902204        -1.597961
 H         4.102847        -1.772986        -0.146145
