19
Iteration:  3550
 C         0.124218         0.759512        -0.387682
 C         1.434029         0.124703         0.167955
 C         1.793645        -1.242742         0.836943
 C         2.687445        -0.477353         1.908795
 C         2.669407         0.622176         0.843727
 O         2.992211         1.963770         0.852044
 C         2.718327        -0.125492        -0.578347
 O         3.251562         0.651376        -1.609878
 C         2.791487        -1.707802        -0.235386
 H         0.311654         1.824621        -0.483330
 H        -0.203048         0.336965        -1.341705
 H        -0.671742         0.637894         0.404861
 H         0.985290        -2.027504         1.193733
 H         2.069796        -0.278919         2.796470
 H         3.662576        -0.691558         2.384457
 H         3.786076         2.006446         0.185764
 H         2.619429         0.573650        -2.406476
 H         2.505063        -2.152994        -1.253352
 H         3.736637        -2.189504         0.069702
