19
Iteration:  3475
 C         0.048041         0.646802        -0.130250
 C         1.408300         0.024165         0.041106
 C         1.699448        -1.232559         0.762690
 C         2.580759        -0.460184         1.876786
 C         2.643052         0.650363         0.749021
 O         3.028832         1.960521         0.877244
 C         2.814992        -0.052233        -0.583087
 O         3.391146         0.649599        -1.634141
 C         2.790768        -1.518587        -0.285440
 H        -0.089360         1.143109        -1.122623
 H        -0.779816        -0.149519        -0.086329
 H        -0.150672         1.263732         0.831327
 H         0.851202        -1.954537         1.130146
 H         2.007559         0.046345         2.614119
 H         3.414552        -0.956693         2.380544
 H         4.022446         1.978263         0.568393
 H         3.406000        -0.205880        -2.264629
 H         2.428137        -2.273868        -1.072587
 H         3.673521        -2.020456         0.048526
