19
Iteration:  2468charge 0 multiplicity 1
 C         0.083842         0.717749        -0.157427
 C         1.371006         0.007740         0.130004
 C         1.807998        -1.234028         0.934707
 C         2.590600        -0.206969         1.925405
 C         2.729939         0.707711         0.691235
 O         3.152802         1.997807         0.802982
 C         2.767113        -0.173162        -0.602086
 O         3.247519         0.383755        -1.760979
 C         2.741073        -1.594295        -0.181926
 H        -0.864373         0.232403         0.317972
 H        -0.026868         1.754196         0.341214
 H        -0.313314         0.670845        -1.202468
 H         1.292872        -2.120701         1.339211
 H         1.907529         0.358522         2.632609
 H         3.427516        -0.688817         2.348137
 H         3.840280         2.223800         0.142201
 H         2.570292         0.292293        -2.354842
 H         2.167687        -2.182659        -0.966229
 H         3.828349        -2.031127        -0.061905
