19
Iteration:   770charge 0 multiplicity 1
 C         0.026442         0.644770        -0.433590
 C         1.430190         0.104950         0.053247
 C         1.825912        -1.402483         0.549089
 C         2.527982        -0.758920         1.811601
 C         2.596833         0.567263         0.944676
 O         2.883324         1.864070         1.247495
 C         2.812058         0.036373        -0.542806
 O         3.318448         0.972498        -1.465959
 C         3.069812        -1.514748        -0.462175
 H        -0.160631         1.628369        -0.143430
 H        -0.022086         0.779254        -1.481698
 H        -0.772375        -0.098868        -0.195640
 H         1.119263        -2.279931         0.847501
 H         1.842507        -0.486542         2.595612
 H         3.442366        -1.217740         1.978257
 H         3.512649         2.257914         0.592724
 H         2.789365         0.985607        -2.166750
 H         2.736866        -1.939001        -1.416670
 H         4.138383        -1.818252        -0.043203
