19
Iteration:  1102charge 0 multiplicity 1
 C         0.183596         0.680712        -0.409464
 C         1.367141         0.027653         0.145226
 C         1.922916        -1.401349         0.656836
 C         2.627580        -0.684662         1.781705
 C         2.599200         0.549893         0.864810
 O         2.816279         1.927729         1.134086
 C         2.695325         0.041475        -0.539709
 O         3.362675         0.829071        -1.435760
 C         2.860037        -1.458440        -0.489263
 H         0.377100         1.097025        -1.449827
 H        -0.685661        -0.004895        -0.206800
 H        -0.191469         1.472963         0.189124
 H         1.182120        -2.204491         0.853558
 H         1.821521        -0.228526         2.516871
 H         3.647619        -1.015796         2.197767
 H         3.598277         2.229960         0.752773
 H         3.450887         0.428239        -2.231475
 H         2.348213        -1.791038        -1.404283
 H         3.838289        -1.836804        -0.403847
