19
Iteration:   830charge 0 multiplicity 1
 C        -0.083751         0.583954        -0.463269
 C         1.342427         0.068795         0.019898
 C         1.911227        -1.368298         0.611500
 C         2.678324        -0.667194         1.800102
 C         2.577504         0.580909         0.892059
 O         2.899103         1.865289         1.231002
 C         2.766183         0.016955        -0.578891
 O         3.470884         0.954492        -1.318372
 C         2.873797        -1.508976        -0.493207
 H        -0.724891         0.797805         0.467446
 H         0.107294         1.515013        -1.123558
 H        -0.656339        -0.056954        -1.144140
 H         1.341625        -2.262688         0.798942
 H         1.856660        -0.488001         2.608016
 H         3.763140        -1.121635         1.960951
 H         3.310264         2.366412         0.538438
 H         3.276455         1.011838        -2.329573
 H         2.452676        -2.023003        -1.444196
 H         3.892718        -2.006371        -0.275423
