19
Iteration:   772charge 0 multiplicity 1
 C         0.018841         0.637759        -0.448674
 C         1.452809         0.114145         0.056872
 C         1.817958        -1.410678         0.580080
 C         2.509993        -0.763448         1.793540
 C         2.613613         0.565243         0.963910
 O         2.873203         1.863019         1.236088
 C         2.821352         0.038481        -0.529438
 O         3.333527         0.981132        -1.471421
 C         3.040394        -1.509238        -0.468919
 H        -0.267831         1.589232        -0.068269
 H         0.016399         0.772291        -1.460556
 H        -0.715952        -0.179257        -0.165745
 H         1.124242        -2.231908         0.812897
 H         1.974161        -0.511497         2.648909
 H         3.402433        -1.277721         2.089137
 H         3.511005         2.327534         0.532695
 H         2.782429         1.000274        -2.277206
 H         2.748878        -1.900740        -1.487254
 H         4.141856        -1.838900        -0.115806
