19
Iteration:  4961charge 0 multiplicity 1
 C         0.094469         0.870743        -0.218371
 C         1.416234         0.209634         0.195821
 C         1.754510        -0.913628         1.290051
 C         2.899004        -0.017543         1.943166
 C         2.801667         0.740961         0.573745
 O         3.272690         2.023717         0.370009
 C         2.649711        -0.365354        -0.463931
 O         3.023381        -0.068011        -1.864528
 C         2.618475        -1.729999         0.121590
 H        -0.354537         0.335174        -1.059851
 H        -0.659931         0.795853         0.571478
 H         0.062268         1.886038        -0.606298
 H         1.100013        -1.540395         1.979885
 H         2.752895         0.443235         2.879854
 H         3.720916        -0.779217         2.012637
 H         3.481006         1.974284        -0.615155
 H         2.150842         0.061676        -2.359518
 H         1.990781        -2.420339        -0.457492
 H         3.542476        -2.280782         0.339793
