19
Iteration:  4570
 C         0.138083         0.838583        -0.328715
 C         1.380464         0.107827         0.220701
 C         1.743823        -1.111541         1.196427
 C         2.874868        -0.212903         1.864407
 C         2.680905         0.697009         0.710154
 O         3.256935         1.978579         0.574508
 C         2.648906        -0.180984        -0.517193
 O         3.048247         0.100534        -1.837101
 C         2.643706        -1.576883        -0.037462
 H         0.569602         1.895310        -0.508110
 H        -0.175396         0.248305        -1.170976
 H        -0.657156         0.953052         0.475310
 H         1.080510        -1.804642         1.682243
 H         2.400638         0.102323         2.828253
 H         3.678541        -0.814394         2.122392
 H         2.727682         2.400782        -0.179854
 H         3.788274         0.633627        -1.719514
 H         2.112561        -2.129868        -0.813713
 H         3.586276        -2.182984         0.264871
