19
Iteration:  2657
 C         0.115551         0.738206        -0.322986
 C         1.411661         0.108016         0.175272
 C         1.780455        -1.123201         1.062005
 C         2.856358        -0.356093         1.930265
 C         2.680493         0.667477         0.763339
 O         3.105650         2.027109         0.614066
 C         2.682650        -0.198417        -0.528957
 O         3.193175         0.495511        -1.606227
 C         2.647433        -1.743902        -0.224825
 H         0.028935         0.660614        -1.415692
 H        -0.608252         0.060708         0.197160
 H        -0.076589         1.794298        -0.053910
 H         0.963023        -1.746191         1.487697
 H         2.396451         0.224918         2.788053
 H         3.793006        -0.785579         2.075125
 H         3.529098         2.069562        -0.223544
 H         2.738047         0.218797        -2.395241
 H         2.137831        -2.495190        -0.906265
 H         3.550100        -2.151453         0.163991
