19
Iteration:  1721charge 0 multiplicity 1
 C         0.144627         0.589973        -0.278206
 C         1.406760        -0.002454         0.119642
 C         1.858825        -1.348284         0.871058
 C         2.561945        -0.391382         1.888571
 C         2.620452         0.644058         0.745498
 O         3.036877         1.924126         1.068408
 C         2.791496        -0.044710        -0.644395
 O         3.343727         0.694448        -1.626779
 C         2.768672        -1.557768        -0.392607
 H        -0.604120         0.505084         0.556745
 H         0.352210         1.642965        -0.405479
 H        -0.366579         0.311022        -1.347713
 H         1.119349        -2.092836         0.974441
 H         1.623679        -0.127075         2.501957
 H         3.470434        -0.613792         2.505586
 H         3.297588         2.436878         0.280431
 H         2.614043         0.762222        -2.285468
 H         2.200339        -2.096506        -1.188494
 H         3.706648        -1.985762        -0.271398
