19
Iteration:   248
 C         0.171761         0.574100        -0.443975
 C         1.468604         0.038527        -0.085202
 C         1.834779        -1.438312         0.383779
 C         2.525447        -0.827133         1.762560
 C         2.498521         0.483646         0.932748
 O         2.680821         1.730712         1.446835
 C         2.924184         0.131830        -0.530971
 O         3.409329         1.281930        -1.227143
 C         3.027991        -1.481071        -0.644689
 H        -0.652047         0.347265         0.290797
 H         0.236864         1.640626        -0.722696
 H        -0.203183        -0.092989        -1.262851
 H         0.876251        -2.245597         0.512450
 H         1.725014        -0.817241         2.561271
 H         3.519331        -1.243484         1.913282
 H         3.390603         2.150097         0.787985
 H         2.844371         1.343667        -1.997041
 H         2.823934        -1.803051        -1.665261
 H         3.905872        -1.932368        -0.302556
