19
Iteration:  4937
 C         0.147348         0.770565        -0.199740
 C         1.396220         0.197696         0.279276
 C         1.836854        -1.034248         1.239818
 C         2.835877         0.019860         1.863875
 C         2.805667         0.759271         0.552728
 O         3.329640         1.996201         0.411960
 C         2.548449        -0.280528        -0.485378
 O         2.991701        -0.012389        -1.875136
 C         2.557697        -1.650484         0.125851
 H        -0.675611         0.201121        -0.554959
 H        -0.321155         1.592360         0.463108
 H         0.468384         1.308139        -1.138040
 H         1.187434        -1.585158         1.952482
 H         2.267775         0.548285         2.662525
 H         3.808012        -0.449220         2.342850
 H         3.937030         1.865342        -0.301260
 H         2.531310        -0.760909        -2.447821
 H         1.955692        -2.470340        -0.369857
 H         3.489326        -2.069109         0.360988
