19
Iteration:  3943charge 0 multiplicity 1
 C         0.122547         0.768068        -0.195128
 C         1.404070         0.066523         0.132990
 C         1.811376        -1.225009         0.955647
 C         2.611180        -0.331456         1.964950
 C         2.764134         0.621172         0.681070
 O         3.018264         2.030098         0.695508
 C         2.713253        -0.236430        -0.554059
 O         3.269067         0.501460        -1.662143
 C         2.764392        -1.643739        -0.236213
 H         0.397068         1.831168        -0.273977
 H        -0.384063         0.464133        -1.084322
 H        -0.591091         0.850674         0.687963
 H         0.964945        -1.818365         1.300982
 H         1.957245         0.137708         2.696238
 H         3.351011        -0.920740         2.475652
 H         3.993402         2.030006         0.488279
 H         2.690724         0.239197        -2.526957
 H         2.271614        -2.134666        -0.993201
 H         3.788390        -2.101168        -0.208978
