19
Iteration:  2785charge 0 multiplicity 1
 C         0.121680         0.796326        -0.274115
 C         1.313476         0.051195         0.138283
 C         1.760052        -1.228680         1.006831
 C         2.817744        -0.338156         1.890360
 C         2.660787         0.645225         0.693741
 O         3.075728         2.009957         0.725868
 C         2.704897        -0.166474        -0.563860
 O         3.255817         0.473941        -1.662621
 C         2.732099        -1.642192        -0.127391
 H        -0.828231         0.187269        -0.157304
 H        -0.100497         1.659499         0.430477
 H         0.121852         1.236339        -1.263274
 H         1.162348        -1.996509         1.365525
 H         2.384242         0.181599         2.727645
 H         3.755870        -0.960384         2.232056
 H         3.557873         2.310870        -0.074162
 H         2.738940        -0.030147        -2.442802
 H         2.105462        -2.268960        -0.831442
 H         3.795449        -2.154241        -0.073230
