19
Iteration:   854charge 0 multiplicity 1
 C         0.125325         0.580555        -0.332944
 C         1.378535         0.023634         0.065583
 C         1.742764        -1.383679         0.594201
 C         2.534359        -0.707805         1.805115
 C         2.467968         0.564661         0.868560
 O         2.924347         1.827420         1.141930
 C         2.818227         0.053019        -0.532255
 O         3.416840         0.974592        -1.405553
 C         2.963128        -1.394610        -0.472026
 H        -0.679288         0.172819         0.362336
 H         0.163843         1.727864        -0.593358
 H        -0.066222         0.141145        -1.322113
 H         1.131841        -2.320835         0.753839
 H         1.912974        -0.428865         2.747703
 H         3.669414        -1.053301         1.785075
 H         3.546434         2.340196         0.470202
 H         3.065249         0.774763        -2.357248
 H         2.789117        -2.033429        -1.371544
 H         3.965266        -1.658952        -0.099303
