19
Iteration:  4982
 C         0.190056         0.812748        -0.152757
 C         1.451926         0.150534         0.263897
 C         1.807775        -0.938020         1.258617
 C         2.906519        -0.028704         1.904907
 C         2.739884         0.710081         0.566106
 O         3.283123         2.045576         0.270916
 C         2.594748        -0.350462        -0.551277
 O         3.060847        -0.030671        -1.795206
 C         2.490391        -1.721689         0.177704
 H        -0.032843         0.817918        -1.210818
 H        -0.752805         0.320903         0.235767
 H         0.024420         1.889534         0.097281
 H         1.026141        -1.464265         1.897024
 H         2.307139         0.501683         2.621969
 H         3.997817        -0.341624         2.251946
 H         3.421905         2.007202        -0.662990
 H         2.459290         0.465088        -2.501829
 H         1.863646        -2.461238        -0.364872
 H         3.340535        -2.288900         0.495018
