19
Iteration:  3199charge 0 multiplicity 1
 C         0.213563         0.815759        -0.227193
 C         1.428727         0.075145         0.090772
 C         1.819193        -1.312550         0.883962
 C         2.665127        -0.328050         1.829255
 C         2.730358         0.556557         0.746495
 O         2.929068         1.980769         0.891476
 C         2.683941        -0.128755        -0.563600
 O         3.223758         0.528959        -1.636655
 C         2.841051        -1.622970        -0.246289
 H        -0.749662         0.289380        -0.087392
 H         0.075560         1.733188         0.342126
 H         0.081640         1.177697        -1.278925
 H         1.143771        -1.987314         1.314470
 H         2.003238        -0.001944         2.687907
 H         3.592697        -0.730349         2.381222
 H         3.335121         2.170336         0.080472
 H         2.739885         0.199529        -2.489094
 H         2.291459        -2.232356        -1.076235
 H         3.784523        -2.122748        -0.017668
