19
Iteration:   208
 C         0.002269         0.671205        -0.409035
 C         1.350473        -0.031452        -0.026354
 C         1.978587        -1.495564         0.400893
 C         2.489320        -0.828033         1.702114
 C         2.447659         0.425664         0.961936
 O         2.643002         1.714554         1.477726
 C         2.873002         0.167305        -0.509854
 O         3.592025         1.084069        -1.299011
 C         3.095352        -1.241731        -0.713594
 H        -0.362432         1.382093         0.416544
 H         0.064302         1.136200        -1.417877
 H        -0.752867        -0.105915        -0.396667
 H         1.449746        -2.341846         0.383697
 H         1.762507        -0.723180         2.473911
 H         3.404145        -1.238425         2.190387
 H         3.191986         2.312034         1.037741
 H         2.945769         1.303303        -2.118301
 H         2.831886        -1.466553        -1.766651
 H         4.189769        -1.727695        -0.416539
