19
Iteration:  3249
 C         0.091470         0.746168        -0.180157
 C         1.355323         0.105823         0.105831
 C         1.823485        -1.222284         0.855121
 C         2.700308        -0.448285         1.858947
 C         2.642380         0.611297         0.722885
 O         2.988601         2.008677         0.766980
 C         2.740707        -0.155920        -0.581477
 O         3.354596         0.576271        -1.500784
 C         2.771187        -1.627952        -0.298533
 H        -0.675204         0.500620         0.585803
 H         0.109596         1.836969        -0.353808
 H        -0.443849         0.354594        -1.037826
 H         1.056085        -1.981843         1.130144
 H         2.145056        -0.247203         2.773047
 H         3.533970        -0.992858         2.168159
 H         3.626903         2.120072        -0.044932
 H         2.907513         0.558748        -2.345099
 H         2.322083        -2.332460        -0.955471
 H         3.757886        -1.963630         0.123158
