19
Iteration:    93charge 0 multiplicity 1
 C         0.141129         0.565629        -0.528430
 C         1.444450         0.030015        -0.080091
 C         1.811397        -1.383520         0.376109
 C         2.552799        -0.921119         1.659998
 C         2.442777         0.469689         0.959983
 O         2.707596         1.641102         1.598445
 C         2.900487         0.162094        -0.543297
 O         3.442006         1.307402        -1.222842
 C         3.079350        -1.387429        -0.646446
 H        -0.052189         0.274930        -1.582716
 H        -0.622463         0.002555         0.074367
 H        -0.106825         1.679873        -0.456143
 H         1.003003        -2.184387         0.333055
 H         2.201339        -1.015298         2.674391
 H         3.535792        -1.349230         1.718505
 H         2.821213         2.303075         0.811435
 H         2.771373         1.641352        -1.958558
 H         2.825335        -1.827719        -1.655302
 H         4.086881        -1.800898        -0.216215
