19
Iteration:  3797
 C         0.104288         0.762327        -0.469427
 C         1.331287         0.041710         0.132616
 C         1.834477        -1.253992         1.008805
 C         2.705096        -0.398958         1.894665
 C         2.662198         0.713155         0.749267
 O         3.158548         1.922282         0.903247
 C         2.740390        -0.166942        -0.495418
 O         3.189044         0.566057        -1.667589
 C         2.733677        -1.605348        -0.236733
 H        -0.535349         0.134302        -1.122189
 H        -0.465431         1.135528         0.461143
 H         0.438076         1.628676        -1.027024
 H         1.369503        -2.080225         1.573395
 H         2.246303         0.074026         2.761730
 H         3.662755        -0.929949         1.985375
 H         3.413262         2.285036         0.067298
 H         2.660135         0.381520        -2.457483
 H         1.944775        -2.097036        -0.873202
 H         3.696467        -2.135648        -0.046538
