19
Iteration:  3053charge 0 multiplicity 1
 C         0.054787         0.700113        -0.294405
 C         1.386357         0.062674         0.124535
 C         1.809706        -1.137512         0.927870
 C         2.734855        -0.294375         1.900504
 C         2.617627         0.627406         0.737544
 O         3.103630         1.877140         0.851077
 C         2.769959        -0.169451        -0.547299
 O         3.246569         0.514591        -1.665938
 C         2.748759        -1.590757        -0.247500
 H        -0.051670         1.083107        -1.291620
 H        -0.822950         0.039974        -0.296520
 H        -0.218707         1.562067         0.311935
 H         1.193125        -1.977002         1.364499
 H         2.028650         0.079275         2.690933
 H         3.717745        -0.633520         2.173981
 H         3.742026         2.220594         0.260291
 H         2.562184         0.496398        -2.385160
 H         2.407337        -2.143536        -1.082830
 H         3.704653        -2.062478         0.170674
