19
Iteration:  4562
 C         0.128847         0.798323        -0.296986
 C         1.291981         0.134331         0.197135
 C         1.837403        -1.076495         1.158178
 C         2.801623        -0.264803         1.879692
 C         2.709008         0.726660         0.703953
 O         3.299068         1.968656         0.597199
 C         2.613358        -0.188270        -0.523434
 O         3.064958         0.085049        -1.784297
 C         2.639750        -1.567345        -0.066249
 H         0.452300         1.733110        -0.784468
 H        -0.358340         0.225961        -1.214549
 H        -0.649854         1.160976         0.372324
 H         1.168945        -1.747573         1.727925
 H         2.509527         0.206567         2.782489
 H         3.855882        -0.608255         1.998655
 H         2.731231         2.385148        -0.106406
 H         3.883099         0.599817        -1.802885
 H         1.984933        -2.264068        -0.691129
 H         3.657730        -2.002261         0.168267
