19
Iteration:  2744charge 0 multiplicity 1
 C         0.046919         0.756093        -0.083433
 C         1.385129         0.072904         0.056105
 C         1.781498        -1.221162         0.995866
 C         2.564127        -0.265415         1.945487
 C         2.753868         0.645475         0.712108
 O         3.140208         1.979580         0.745153
 C         2.709442        -0.118932        -0.595672
 O         3.268223         0.388820        -1.791757
 C         2.820343        -1.611700        -0.168303
 H        -0.657542         0.117284        -0.616447
 H        -0.365281         0.790858         0.920414
 H         0.095592         1.644680        -0.625743
 H         0.877066        -1.776687         1.253908
 H         2.016548         0.393074         2.642538
 H         3.544368        -0.614858         2.267620
 H         3.699960         2.023338        -0.107629
 H         2.897540        -0.022491        -2.528820
 H         2.225567        -2.135039        -0.833657
 H         3.727803        -2.089975         0.113522
