19
Iteration:   265charge 0 multiplicity 1
 C         0.078545         0.582410        -0.572081
 C         1.390112        -0.027198        -0.049798
 C         1.932346        -1.437373         0.432766
 C         2.500148        -0.814115         1.700680
 C         2.576805         0.489814         0.897189
 O         2.766506         1.710558         1.452955
 C         2.849156         0.102757        -0.543240
 O         3.362734         1.250703        -1.162079
 C         3.038999        -1.383658        -0.593945
 H        -0.714101         0.209787         0.072280
 H         0.061672         1.641107        -0.264723
 H        -0.162056         0.584274        -1.673825
 H         1.395387        -2.284966         0.480440
 H         1.740436        -0.614213         2.460477
 H         3.474545        -1.234599         2.113213
 H         3.557491         2.076243         0.905469
 H         2.957288         1.201546        -2.085719
 H         2.549743        -1.788838        -1.520771
 H         4.001078        -1.997810        -0.277852
