19
Iteration:   918
 C         0.098882         0.698119        -0.355582
 C         1.391972         0.018688         0.016360
 C         1.840750        -1.322735         0.645765
 C         2.573204        -0.701190         1.804240
 C         2.569154         0.557978         0.910942
 O         2.794521         1.863267         1.237388
 C         2.838483         0.027614        -0.573531
 O         3.378460         0.910536        -1.530165
 C         3.005873        -1.508922        -0.433714
 H        -0.766381        -0.041389        -0.390959
 H        -0.025151         1.640156         0.276884
 H         0.162508         1.110769        -1.356756
 H         1.132282        -2.144952         0.769394
 H         1.804850        -0.712024         2.688789
 H         3.525223        -1.292128         2.030852
 H         3.167709         2.323120         0.382220
 H         2.775280         0.944117        -2.383982
 H         2.868956        -2.258853        -1.333322
 H         4.091387        -1.862109        -0.062168
