19
Iteration:   531charge 0 multiplicity 1
 C         0.228227         0.586314        -0.510674
 C         1.440665         0.005652         0.103687
 C         1.855237        -1.407307         0.542083
 C         2.548563        -0.784425         1.762236
 C         2.589691         0.515841         0.920229
 O         2.705292         1.837897         1.341320
 C         2.860358         0.131860        -0.470242
 O         3.361796         1.074334        -1.423577
 C         2.913700        -1.424543        -0.614659
 H        -0.404520         0.840343         0.313256
 H         0.466966         1.385086        -1.158418
 H        -0.430747        -0.150240        -1.141392
 H         1.129833        -2.275563         0.761967
 H         1.774049        -0.808094         2.559964
 H         3.497441        -1.181398         2.148632
 H         3.596463         2.189340         1.538737
 H         2.913086         0.932217        -2.354175
 H         2.657142        -1.674512        -1.661656
 H         3.810266        -2.006144        -0.369440
