19
Iteration:  3401charge 0 multiplicity 1
 C         0.186612         0.752975        -0.384677
 C         1.413228         0.107863         0.114771
 C         1.821608        -1.247055         0.878132
 C         2.689077        -0.509416         1.928661
 C         2.731559         0.635059         0.825308
 O         2.947051         1.982751         0.910026
 C         2.743189        -0.144376        -0.541038
 O         3.226007         0.592920        -1.614829
 C         2.778281        -1.623638        -0.296188
 H         0.423983         1.721927        -0.846328
 H        -0.264941         0.185327        -1.223204
 H        -0.516610         0.784253         0.396259
 H         0.990640        -1.918829         1.207310
 H         2.029938        -0.184338         2.760867
 H         3.700958        -1.044763         2.080631
 H         3.283961         2.312955         0.078885
 H         2.561727         0.919648        -2.197243
 H         2.265531        -2.173914        -1.131801
 H         3.721237        -2.155919        -0.047225
