19
Iteration:    71charge 0 multiplicity 1
 C         0.145620         0.520664        -0.535761
 C         1.427346         0.006260         0.014691
 C         1.954829        -1.448673         0.299070
 C         2.459824        -0.908724         1.687375
 C         2.541912         0.463277         0.983893
 O         2.739370         1.696473         1.612500
 C         2.882303         0.173812        -0.496194
 O         3.383646         1.264678        -1.219773
 C         3.006994        -1.272214        -0.736203
 H        -0.174458        -0.146222        -1.368345
 H        -0.712057         0.647630         0.195614
 H         0.224431         1.560197        -1.029978
 H         1.320138        -2.363901         0.306200
 H         1.582708        -0.891717         2.311695
 H         3.210181        -1.397157         2.294783
 H         3.005538         2.233198         0.901977
 H         3.115940         1.146739        -2.088912
 H         2.700093        -1.508955        -1.796045
 H         4.059580        -1.744916        -0.482922
