19
Iteration:  4695charge 0 multiplicity 1
 C        -0.042239         0.673782        -0.233619
 C         1.443116         0.189412         0.198588
 C         1.782908        -1.062076         1.204068
 C         2.800254        -0.022176         1.927935
 C         2.773130         0.692929         0.628649
 O         3.416802         1.938080         0.477161
 C         2.673764        -0.283233        -0.559427
 O         3.128555         0.165462        -1.807336
 C         2.458260        -1.701260        -0.031798
 H        -0.707827         0.026734         0.255979
 H        -0.081303         1.658575         0.341098
 H        -0.017008         0.594801        -1.303046
 H         1.175475        -1.615260         1.906543
 H         2.305433         0.563355         2.599480
 H         3.725057        -0.422589         2.234397
 H         2.769065         2.580751         0.131459
 H         3.706050         0.865643        -1.626005
 H         1.652868        -2.145411        -0.758974
 H         3.411489        -2.314289        -0.037978
