19
Iteration:  4976
 C         0.156245         0.807329        -0.199784
 C         1.457627         0.209376         0.225769
 C         1.816889        -0.962939         1.264843
 C         2.905104        -0.066203         1.881584
 C         2.775208         0.721987         0.644596
 O         3.270601         2.038832         0.286197
 C         2.599929        -0.343772        -0.569639
 O         3.048702        -0.047389        -1.813229
 C         2.492571        -1.722037         0.201191
 H        -0.229884         0.665769        -1.259100
 H        -0.665214         0.447415         0.423197
 H         0.244735         1.865336         0.068469
 H         1.019854        -1.367608         1.835954
 H         2.401963         0.533677         2.689590
 H         3.873887        -0.347795         2.089990
 H         3.376119         2.149388        -0.693065
 H         2.401736         0.387807        -2.285208
 H         1.869370        -2.446989        -0.305554
 H         3.488812        -2.178525         0.559825
