19
Iteration:  1212charge 0 multiplicity 1
 C         0.065844         0.564957        -0.360506
 C         1.365005         0.007642         0.043509
 C         1.776405        -1.318921         0.591322
 C         2.651009        -0.565399         1.826473
 C         2.620677         0.565697         0.822258
 O         2.973939         1.896623         1.145357
 C         2.686386        -0.059162        -0.601083
 O         3.357822         0.938712        -1.454224
 C         2.873021        -1.538619        -0.341015
 H         0.071107         1.638147         0.047951
 H         0.025363         0.729704        -1.509712
 H        -0.791640         0.091123         0.061018
 H         1.091547        -2.108332         0.826099
 H         2.033569        -0.455838         2.855933
 H         3.753033        -0.920046         2.077247
 H         3.689208         2.106438         0.552752
 H         3.161059         0.893887        -2.412671
 H         2.686719        -2.121505        -1.254427
 H         3.832494        -1.772814         0.031616
