19
Iteration:  4960charge 0 multiplicity 1
 C         0.096891         0.874192        -0.221876
 C         1.415032         0.203957         0.202997
 C         1.752005        -0.907314         1.291124
 C         2.900246        -0.016856         1.943541
 C         2.792386         0.727473         0.573588
 O         3.276995         2.026775         0.372717
 C         2.656422        -0.359961        -0.468389
 O         3.015676        -0.068478        -1.864239
 C         2.626697        -1.729149         0.120554
 H        -0.375842         0.311374        -1.015466
 H        -0.696821         0.829179         0.578528
 H         0.038524         1.886866        -0.650694
 H         1.102866        -1.550166         1.966294
 H         2.726054         0.466703         2.893091
 H         3.754797        -0.794957         2.008114
 H         3.511919         1.987096        -0.618512
 H         2.205065         0.019924        -2.357984
 H         1.987340        -2.420380        -0.490103
 H         3.519948        -2.271780         0.330823
