19
Iteration:  3156charge 0 multiplicity 1
 C         0.139463         0.709386        -0.278029
 C         1.412821         0.060834         0.102202
 C         1.793550        -1.203713         0.906540
 C         2.636294        -0.366664         1.864938
 C         2.677803         0.655818         0.796572
 O         3.070398         1.939905         0.931428
 C         2.753827        -0.075502        -0.553487
 O         3.217107         0.425806        -1.742923
 C         2.781154        -1.547204        -0.265839
 H        -0.414933        -0.082493        -0.800849
 H        -0.384142         0.958143         0.624804
 H         0.016497         1.563207        -0.943690
 H         1.141827        -1.973249         1.210421
 H         2.162520         0.064763         2.761658
 H         3.528019        -0.748945         2.443375
 H         3.710343         2.310800         0.350443
 H         2.454367         0.580132        -2.313971
 H         2.372472        -2.199306        -1.153400
 H         3.802339        -1.810514         0.021807
