19
Iteration:  1429
 C         0.092722         0.683321        -0.317770
 C         1.465290         0.052745         0.066831
 C         1.878525        -1.365945         0.738369
 C         2.495550        -0.600927         1.874521
 C         2.614105         0.576778         0.840341
 O         2.968382         1.969194         1.070181
 C         2.751790        -0.054829        -0.636343
 O         3.295326         0.870505        -1.520565
 C         2.901831        -1.623668        -0.383747
 H        -0.604233        -0.184505        -0.343553
 H        -0.366126         1.383324         0.414890
 H         0.065777         1.208137        -1.234685
 H         1.114148        -2.113107         0.814267
 H         1.767576        -0.258628         2.583558
 H         3.501302        -0.768367         2.321469
 H         3.789518         2.108394         0.504659
 H         3.116491         0.556182        -2.460373
 H         2.455727        -2.012350        -1.246859
 H         3.868477        -2.042020        -0.229268
