19
Iteration:  3634
 C         0.066280         0.699453        -0.303971
 C         1.359564         0.087574         0.141524
 C         1.755675        -1.214912         0.869333
 C         2.691867        -0.445117         1.852682
 C         2.687057         0.633387         0.808876
 O         3.035053         1.982737         0.978265
 C         2.798963        -0.101749        -0.557315
 O         3.349423         0.508516        -1.728236
 C         2.694457        -1.590999        -0.258210
 H        -0.195202         1.591328         0.285112
 H         0.163483         1.073356        -1.377138
 H        -0.759600        -0.033189        -0.275997
 H         1.135222        -2.045611         1.199444
 H         2.090176         0.176069         2.558025
 H         3.689999        -0.807657         1.962500
 H         3.720986         2.251227         0.426834
 H         2.648450         0.591489        -2.304433
 H         2.355497        -2.099145        -1.116067
 H         3.681793        -2.058168         0.103795
