19
Iteration:  3977charge 0 multiplicity 1
 C         0.183105         0.867511        -0.322034
 C         1.358482         0.045379         0.096303
 C         1.799490        -1.236077         1.031812
 C         2.695420        -0.339608         1.917114
 C         2.650472         0.639074         0.709468
 O         3.069836         1.941950         0.743242
 C         2.697191        -0.196944        -0.559356
 O         3.113512         0.535298        -1.698925
 C         2.831745        -1.669607        -0.164676
 H         0.387103         1.844262         0.157083
 H         0.079929         1.075072        -1.373692
 H        -0.733904         0.278079         0.093030
 H         1.020000        -1.935517         1.362425
 H         2.201599         0.056859         2.818804
 H         3.614669        -0.818223         2.248168
 H         4.023422         1.978115         0.766944
 H         3.007813         0.128325        -2.588868
 H         2.325730        -2.322400        -0.833503
 H         3.866099        -1.924133         0.221545
