19
Iteration:  2157
 C         0.006428         0.616191        -0.285501
 C         1.371571         0.064876         0.109556
 C         1.867476        -1.252935         0.891744
 C         2.575498        -0.341696         1.891424
 C         2.651039         0.658321         0.755201
 O         3.204650         1.910675         0.908575
 C         2.732463        -0.098335        -0.544917
 O         3.221474         0.541984        -1.692819
 C         2.835009        -1.497981        -0.237262
 H        -0.387694        -0.054700        -1.012968
 H        -0.572132         0.870099         0.648060
 H         0.040069         1.592843        -0.622238
 H         1.066996        -1.948761         1.293863
 H         1.812103         0.164112         2.567836
 H         3.589857        -0.626216         2.419318
 H         3.547681         2.149836         0.074234
 H         3.045799         0.228563        -2.666469
 H         2.220943        -1.931368        -0.979016
 H         3.677424        -2.154965        -0.042132
