19
Iteration:  4246charge 0 multiplicity 1
 C         0.103666         0.784170        -0.300927
 C         1.378354         0.082924         0.229456
 C         1.823319        -1.192979         1.061848
 C         2.641018        -0.254282         1.970877
 C         2.704333         0.636725         0.784225
 O         3.158076         1.992662         0.614771
 C         2.746655        -0.164646        -0.515204
 O         3.217559         0.325882        -1.809454
 C         2.727068        -1.615070        -0.157845
 H         0.267901         1.813682        -0.555936
 H        -0.517735         0.138970        -1.036080
 H        -0.515886         0.842328         0.599715
 H         1.065640        -1.833467         1.510885
 H         1.983791         0.242843         2.654804
 H         3.603125        -0.535233         2.331571
 H         3.879137         1.821485        -0.018930
 H         2.456533         0.831924        -2.141071
 H         2.043701        -2.104678        -0.973183
 H         3.564262        -2.329586        -0.041166
