19
Iteration:  1782
 C         0.035970         0.701229        -0.278410
 C         1.351473         0.019156         0.132018
 C         1.873763        -1.294900         0.869281
 C         2.615525        -0.467834         1.877596
 C         2.576334         0.629614         0.795850
 O         2.975558         1.938082         0.923610
 C         2.771767        -0.074296        -0.553472
 O         3.365136         0.695459        -1.599836
 C         2.839109        -1.539314        -0.399060
 H        -0.878900         0.101486        -0.225736
 H        -0.019731         1.586626         0.441614
 H         0.074443         1.037620        -1.277822
 H         1.210628        -2.158508         1.126687
 H         1.914964        -0.440184         2.678237
 H         3.585474        -0.781899         2.187836
 H         3.857662         2.114088         0.404573
 H         3.178759         0.257999        -2.520000
 H         2.298053        -2.211137        -1.065587
 H         3.884322        -2.005095        -0.158100
