19
Iteration:  2378charge 0 multiplicity 1
 C         0.149152         0.626383        -0.373322
 C         1.359363         0.066085         0.193343
 C         1.863394        -1.222393         1.016981
 C         2.772037        -0.349577         1.983512
 C         2.628002         0.714838         0.839306
 O         3.130029         1.982481         0.693057
 C         2.683679        -0.144496        -0.578891
 O         3.249281         0.581925        -1.661360
 C         2.597809        -1.634522        -0.231659
 H        -0.260577         1.460718         0.289773
 H         0.496395         1.122546        -1.359734
 H        -0.660165        -0.132766        -0.278129
 H         1.284001        -1.888755         1.596385
 H         2.205255        -0.147593         2.879635
 H         3.676623        -0.781200         2.193007
 H         3.252580         2.021090        -0.300069
 H         3.013922         0.294684        -2.481901
 H         1.989140        -2.086493        -0.997034
 H         3.620709        -2.248819        -0.145556
