19
Iteration:  3855
 C         0.017913         0.655146        -0.309610
 C         1.386337         0.074925         0.120254
 C         1.740460        -1.194731         0.890053
 C         2.631474        -0.363066         1.984460
 C         2.706999         0.655849         0.850171
 O         3.228898         1.931703         0.732225
 C         2.757667        -0.126121        -0.541637
 O         3.232959         0.616776        -1.682485
 C         2.703523        -1.602650        -0.214850
 H        -0.290202         0.742636        -1.367201
 H        -0.723672         0.054434         0.202025
 H         0.072132         1.715537         0.213599
 H         1.027876        -1.980966         1.256216
 H         2.115748         0.070305         2.820851
 H         3.435511        -0.861339         2.430143
 H         3.732078         2.038756        -0.167049
 H         3.254671        -0.097985        -2.403949
 H         2.297329        -2.108906        -1.041872
 H         3.685735        -2.219069         0.006468
