19
Iteration:  4828charge 0 multiplicity 1
 C         0.121486         0.833568        -0.149782
 C         1.370202         0.133938         0.208000
 C         1.750024        -0.962176         1.221061
 C         2.871011        -0.030225         1.886706
 C         2.781307         0.696567         0.615926
 O         3.316678         2.046126         0.427622
 C         2.634685        -0.320564        -0.608906
 O         3.040952         0.019945        -1.857477
 C         2.559829        -1.750266         0.058230
 H         0.329647         1.884384        -0.061862
 H        -0.308080         0.677690        -1.192104
 H        -0.709108         0.627902         0.546574
 H         1.075438        -1.589976         1.802360
 H         2.421047         0.418008         2.729529
 H         3.802558        -0.503708         2.198106
 H         2.580361         2.573063         0.051849
 H         4.067011        -0.228471        -1.838753
 H         1.813379        -2.477346        -0.463688
 H         3.471429        -2.346473         0.399239
