19
Iteration:  4981charge 0 multiplicity 1
 C         0.189119         0.809413        -0.164846
 C         1.459348         0.160391         0.258560
 C         1.811622        -0.941070         1.257919
 C         2.906328        -0.039241         1.898556
 C         2.740349         0.707275         0.582345
 O         3.281878         2.046829         0.273122
 C         2.595605        -0.346857        -0.558143
 O         3.058359        -0.035366        -1.794812
 C         2.490687        -1.719677         0.187609
 H        -0.084329         0.794907        -1.203788
 H        -0.775233         0.334332         0.279316
 H         0.057613         1.913535         0.097655
 H         1.018500        -1.448069         1.880453
 H         2.295006         0.515614         2.633748
 H         4.016363        -0.340672         2.224240
 H         3.410665         2.040792        -0.676355
 H         2.438779         0.477071        -2.497324
 H         1.856827        -2.480984        -0.364147
 H         3.340174        -2.254895         0.505363
