19
Iteration:  1017charge 0 multiplicity 1
 C         0.084903         0.601973        -0.384077
 C         1.393112         0.058023        -0.006888
 C         1.814388        -1.417515         0.635762
 C         2.489500        -0.664859         1.885194
 C         2.490499         0.587374         0.982623
 O         3.008840         1.855688         1.173404
 C         2.788373         0.092695        -0.576064
 O         3.411121         0.860856        -1.545800
 C         2.940667        -1.455882        -0.460936
 H        -0.170091         0.488538        -1.500443
 H        -0.681819        -0.021333         0.235822
 H        -0.046753         1.656015        -0.091913
 H         1.233514        -2.270295         0.983371
 H         1.824564        -0.504223         2.791435
 H         3.516461        -0.858108         2.164991
 H         3.478835         1.952585         0.232730
 H         2.655652         1.217377        -2.206965
 H         2.809512        -1.826219        -1.564361
 H         3.972311        -1.603126         0.111636
