19
Iteration:  2915
 C         0.021408         0.637916        -0.222226
 C         1.424056         0.165928         0.222893
 C         1.867486        -1.184332         0.944766
 C         2.654132        -0.321184         1.960688
 C         2.583012         0.714434         0.800580
 O         3.222471         1.989013         0.771848
 C         2.665756        -0.179132        -0.612476
 O         3.320110         0.494660        -1.720080
 C         2.709979        -1.690231        -0.316339
 H        -0.248292         1.284338         0.685037
 H         0.095104         1.218131        -1.170623
 H        -0.813184        -0.105267        -0.147174
 H         1.138536        -1.807745         1.314511
 H         1.928946         0.033803         2.655113
 H         3.576605        -0.561843         2.455708
 H         3.351482         2.122410        -0.257635
 H         2.845166         0.271354        -2.481609
 H         2.078847        -2.377473        -0.941760
 H         3.593592        -2.220448        -0.183155
