19
Iteration:  4704
 C         0.061652         0.626292        -0.242153
 C         1.357232         0.235071         0.203843
 C         1.796763        -0.989213         1.188745
 C         2.820925        -0.097583         1.962751
 C         2.829327         0.683888         0.676066
 O         3.421319         1.976122         0.375708
 C         2.595157        -0.236852        -0.520833
 O         3.113943         0.151030        -1.746958
 C         2.474250        -1.750111        -0.102896
 H        -0.743947        -0.071361        -0.005655
 H        -0.274013         1.557879         0.308432
 H        -0.103540         0.928011        -1.271482
 H         1.142952        -1.465882         1.948095
 H         2.155762         0.340808         2.710772
 H         3.756536        -0.418667         2.399607
 H         2.699860         2.614358         0.257166
 H         3.738022         0.808674        -1.491341
 H         1.764492        -2.309875        -0.792262
 H         3.413936        -2.377106        -0.039313
