19
Iteration:   292charge 0 multiplicity 1
 C         0.131246         0.594121        -0.586527
 C         1.336038        -0.005401         0.074812
 C         1.933436        -1.472280         0.391008
 C         2.484332        -0.850039         1.803404
 C         2.397157         0.502868         1.035442
 O         2.886750         1.713552         1.453481
 C         2.746022         0.117861        -0.540278
 O         3.406749         1.175978        -1.284482
 C         3.112544        -1.263181        -0.671949
 H        -0.722304        -0.147062        -0.593681
 H        -0.213232         1.428809         0.056897
 H         0.260055         0.984104        -1.631384
 H         1.210910        -2.457156         0.427770
 H         1.687811        -0.820191         2.596706
 H         3.527168        -1.021389         2.114800
 H         3.182188         1.997350         0.520790
 H         3.103577         0.903544        -2.193715
 H         2.886870        -1.689532        -1.640782
 H         4.016223        -1.573739        -0.306241
