19
Iteration:  3614
 C         0.143017         0.691437        -0.382825
 C         1.405739         0.212963         0.113551
 C         1.741134        -1.192171         0.873702
 C         2.674760        -0.517126         1.884013
 C         2.671093         0.665173         0.788199
 O         3.065595         2.006080         1.024820
 C         2.652591        -0.160878        -0.579261
 O         3.208841         0.471932        -1.703414
 C         2.880468        -1.543281        -0.264745
 H        -0.087048         1.619641         0.020497
 H         0.049659         0.887338        -1.397791
 H        -0.637785        -0.027512        -0.092706
 H         0.910548        -1.916651         1.256961
 H         2.063024        -0.110860         2.786695
 H         3.677688        -1.034957         2.073864
 H         3.937671         2.258170         0.739074
 H         2.741393         0.278370        -2.496626
 H         2.423822        -2.096991        -1.034830
 H         3.828911        -2.060994        -0.092742
