19
Iteration:  3278
 C         0.001337         0.653803        -0.175355
 C         1.351053         0.100882         0.135627
 C         1.838142        -1.290472         0.893560
 C         2.582350        -0.367512         1.918281
 C         2.581369         0.655141         0.741477
 O         3.126477         1.942120         0.866368
 C         2.810292        -0.079895        -0.650031
 O         3.442257         0.600879        -1.667232
 C         2.715762        -1.588618        -0.294192
 H        -0.534353         0.930414         0.712365
 H        -0.040487         1.408111        -0.949599
 H        -0.597523        -0.233095        -0.544809
 H         1.101873        -2.117016         1.216198
 H         1.854883        -0.134463         2.689124
 H         3.588196        -0.821155         2.347785
 H         3.798594         2.004747         0.082744
 H         2.721129         0.831717        -2.404128
 H         2.157515        -2.177155        -1.138742
 H         3.624298        -2.060766         0.062983
