19
Iteration:  4998
 C         0.104695         0.838301        -0.134324
 C         1.372582         0.150056         0.308107
 C         1.819332        -0.984135         1.344088
 C         2.826964         0.084307         1.905024
 C         2.827709         0.702794         0.586621
 O         3.271835         1.955120         0.199593
 C         2.609942        -0.350843        -0.521575
 O         3.117611         0.019183        -1.798706
 C         2.520135        -1.750986         0.077981
 H         0.316497         1.295771        -1.171316
 H        -0.763764         0.195705        -0.223715
 H        -0.033639         1.616175         0.612871
 H         1.157172        -1.502715         1.992651
 H         2.457591         0.827836         2.655146
 H         3.722540        -0.353380         2.190298
 H         3.844065         1.991693        -0.599728
 H         2.193528        -0.010379        -2.306318
 H         1.722383        -2.284381        -0.445754
 H         3.507893        -2.340965         0.165656
