19
Iteration:  4166
 C         0.149044         0.859111        -0.193355
 C         1.374246         0.137513         0.188467
 C         1.820601        -1.171272         1.012881
 C         2.721634        -0.291395         1.964453
 C         2.684662         0.644123         0.677301
 O         3.024434         2.070202         0.781891
 C         2.647622        -0.196399        -0.564387
 O         3.289722         0.282728        -1.779939
 C         2.688935        -1.664277        -0.240185
 H        -0.114921         0.528497        -1.238644
 H        -0.796955         0.474301         0.277174
 H         0.212134         1.979382        -0.177676
 H         1.103611        -1.954952         1.165697
 H         2.327636         0.181020         2.912590
 H         3.712473        -0.755795         2.279721
 H         3.739118         2.225911         0.145192
 H         3.120614        -0.590963        -2.289775
 H         2.189054        -2.182568        -1.145905
 H         3.762429        -2.045696        -0.011035
