19
Iteration:  1092charge 0 multiplicity 1
 C         0.126793         0.704106        -0.418377
 C         1.411306         0.055027         0.173134
 C         1.802709        -1.393010         0.646032
 C         2.645833        -0.673725         1.855135
 C         2.647765         0.560917         0.892474
 O         2.803535         1.922641         1.109438
 C         2.810064         0.033299        -0.490120
 O         3.330193         0.876487        -1.480254
 C         2.910888        -1.485339        -0.545584
 H         0.028022         0.906742        -1.541597
 H        -0.600134        -0.172270        -0.439437
 H        -0.112317         1.542292         0.173738
 H         1.047244        -2.165329         0.823454
 H         1.881380        -0.583441         2.751996
 H         3.452792        -1.192071         2.399642
 H         3.597377         2.170348         0.637911
 H         3.196405         0.315698        -2.195357
 H         2.531314        -1.925023        -1.503244
 H         3.896291        -1.970254        -0.417751
