19
Iteration:  3906charge 0 multiplicity 1
 C        -0.046119         0.729529        -0.130351
 C         1.337541         0.116480         0.090318
 C         1.740916        -1.136484         0.972298
 C         2.708566        -0.360681         1.871957
 C         2.634307         0.683289         0.792834
 O         3.065646         1.970595         0.827207
 C         2.777400        -0.144871        -0.649594
 O         3.494052         0.378643        -1.747888
 C         2.727782        -1.634298        -0.223394
 H         0.080687         1.291401        -1.052549
 H        -0.799237        -0.049855        -0.404779
 H        -0.388269         1.344825         0.635082
 H         0.917527        -1.777137         1.361226
 H         2.351577        -0.039932         2.895633
 H         3.786735        -0.788987         2.037395
 H         3.426214         2.397035         0.039307
 H         2.697872         0.655543        -2.379053
 H         2.111199        -2.206669        -0.998819
 H         3.632234        -2.140633        -0.001054
