19
Iteration:  4845charge 0 multiplicity 1
 C         0.041216         0.900194        -0.173336
 C         1.370116         0.189335         0.181371
 C         1.884190        -1.064670         1.308085
 C         2.863698        -0.033947         1.841533
 C         2.704794         0.745228         0.563854
 O         3.290183         1.932413         0.444790
 C         2.675666        -0.332704        -0.539411
 O         3.060188         0.003132        -1.828249
 C         2.500201        -1.676264         0.068846
 H        -0.029223         1.964462         0.267646
 H         0.065562         1.003042        -1.246105
 H        -0.666564         0.156855         0.237309
 H         1.157370        -1.615612         1.907817
 H         2.471527         0.688261         2.706568
 H         3.903401        -0.365123         2.181085
 H         2.993433         2.350851        -0.427481
 H         4.114343         0.005535        -1.878076
 H         1.868132        -2.246782        -0.555224
 H         3.360800        -2.339899         0.006390
