19
Iteration:  3255charge 0 multiplicity 1
 C         0.062222         0.714281        -0.185010
 C         1.358674         0.051197         0.094618
 C         1.769063        -1.197153         0.848612
 C         2.682099        -0.419331         1.852900
 C         2.666271         0.622543         0.780717
 O         3.005989         1.971943         0.767426
 C         2.733487        -0.135455        -0.599583
 O         3.385743         0.581405        -1.516277
 C         2.801697        -1.588518        -0.304218
 H        -0.552305         0.529618         0.709499
 H         0.228657         1.765208        -0.425703
 H        -0.577944         0.224658        -0.993317
 H         0.968479        -1.881579         1.206105
 H         2.154407        -0.021388         2.745659
 H         3.658770        -1.046122         2.115972
 H         3.633657         2.053508         0.081794
 H         2.737099         0.487438        -2.208883
 H         2.157346        -2.259694        -1.007231
 H         3.773299        -1.958411        -0.006444
