19
Iteration:   796charge 0 multiplicity 1
 C         0.126256         0.470671        -0.407352
 C         1.427485        -0.010623         0.077404
 C         1.842408        -1.314828         0.553163
 C         2.566032        -0.646049         1.814609
 C         2.539535         0.563785         0.908531
 O         2.876140         1.841985         1.232632
 C         2.832415         0.075801        -0.543210
 O         3.440474         0.966619        -1.410561
 C         2.823199        -1.427169        -0.559010
 H        -0.195665         1.338019         0.260176
 H         0.331422         0.989106        -1.372656
 H        -0.655300        -0.305565        -0.437921
 H         1.215431        -2.119198         0.754355
 H         1.892328        -0.511934         2.734111
 H         3.489905        -1.006943         2.419377
 H         3.296840         2.338562         0.568741
 H         2.990975         0.970121        -2.235193
 H         2.210505        -1.798083        -1.460674
 H         3.798651        -2.049083        -0.402551
