19
Iteration:  4548
 C         0.002884         0.796104        -0.353026
 C         1.364755         0.202001         0.272692
 C         1.809350        -1.133838         1.086696
 C         2.848908        -0.109656         1.919699
 C         2.689299         0.710409         0.679613
 O         3.353939         1.974796         0.628579
 C         2.586426        -0.260703        -0.556868
 O         3.084638         0.150453        -1.795626
 C         2.632022        -1.713918        -0.085757
 H         0.304278         1.561386        -1.156657
 H        -0.637994        -0.021880        -0.732526
 H        -0.526676         1.289963         0.512519
 H         1.146388        -1.799184         1.609234
 H         2.355295         0.266203         2.847396
 H         3.739588        -0.581939         2.155907
 H         2.972157         2.683785         0.129754
 H         3.976741         0.584155        -1.537672
 H         2.079904        -2.407360        -0.715063
 H         3.694887        -2.163379         0.082428
