19
Iteration:  3048
 C         0.060241         0.700967        -0.283310
 C         1.403981         0.093636         0.155290
 C         1.769111        -1.191513         0.915626
 C         2.714270        -0.293283         1.868540
 C         2.683811         0.663711         0.720758
 O         3.068939         1.913125         0.888392
 C         2.761826        -0.168385        -0.581598
 O         3.233838         0.496983        -1.676555
 C         2.789216        -1.641941        -0.211139
 H         0.041363         1.170496        -1.339959
 H        -0.878758         0.061658        -0.290494
 H        -0.231705         1.518064         0.432012
 H         1.049673        -1.938172         1.286182
 H         2.080593         0.138741         2.612628
 H         3.739866        -0.639838         2.170351
 H         3.807651         2.103780         0.207444
 H         2.550230         0.520933        -2.421216
 H         2.430382        -2.171311        -1.166016
 H         3.706015        -1.975252         0.205006
