19
Iteration:  3919charge 0 multiplicity 1
 C         0.085973         0.736331        -0.160076
 C         1.410803         0.173991         0.158599
 C         1.773019        -1.209053         0.864880
 C         2.697517        -0.359217         1.869006
 C         2.612423         0.691060         0.755411
 O         3.021465         2.019746         0.790744
 C         2.754530        -0.155880        -0.529194
 O         3.413700         0.376050        -1.752561
 C         2.694263        -1.618667        -0.192438
 H         0.036312         1.629101        -0.748058
 H        -0.580355        -0.037543        -0.534008
 H        -0.317765         1.054764         0.784174
 H         0.987538        -1.899991         1.268524
 H         2.106838        -0.104365         2.773072
 H         3.631774        -0.925523         2.107561
 H         3.565313         1.916975        -0.062080
 H         2.747244         0.535209        -2.432142
 H         2.264283        -2.138436        -0.994249
 H         3.586915        -2.150388         0.120647
