19
Iteration:  4544
 C        -0.008358         0.783716        -0.340133
 C         1.360138         0.202494         0.240918
 C         1.794039        -1.133496         1.122346
 C         2.849449        -0.090301         1.898544
 C         2.692758         0.735085         0.680154
 O         3.374432         1.965479         0.640773
 C         2.595288        -0.292733        -0.565402
 O         3.090189         0.182004        -1.804667
 C         2.643562        -1.731611        -0.099247
 H         0.224897         1.498287        -1.122134
 H        -0.535476        -0.104922        -0.577898
 H        -0.474344         1.393735         0.438753
 H         1.046784        -1.796132         1.614585
 H         2.293463         0.261004         2.792386
 H         3.795294        -0.620866         2.319266
 H         2.852422         2.640978         0.115593
 H         3.937055         0.583987        -1.527167
 H         2.078042        -2.385336        -0.767805
 H         3.553679        -2.206426         0.167962
