19
Iteration:  4063charge 0 multiplicity 1
 C         0.043251         0.592130        -0.316224
 C         1.417781         0.166762         0.148360
 C         1.739033        -1.140815         0.997923
 C         2.653230        -0.293209         1.893937
 C         2.717845         0.709618         0.730080
 O         3.275574         1.917762         0.785067
 C         2.684079        -0.149119        -0.587860
 O         3.232822         0.496106        -1.666300
 C         2.662521        -1.636760        -0.154415
 H        -0.787634         0.212796         0.277464
 H         0.016477         1.638110        -0.238613
 H        -0.271587         0.422012        -1.353015
 H         0.986263        -1.875666         1.336168
 H         2.266594         0.021218         2.899220
 H         3.655548        -0.831636         2.058207
 H         3.656247         2.151002        -0.081684
 H         2.828034         0.263604        -2.553494
 H         2.135381        -2.292846        -0.809989
 H         3.700503        -1.996961         0.118121
