19
Iteration:  3850charge 0 multiplicity 1
 C         0.020885         0.672116        -0.311837
 C         1.420058         0.073095         0.075648
 C         1.720761        -1.239688         0.915624
 C         2.622488        -0.440940         1.992817
 C         2.761852         0.665726         0.793509
 O         3.229223         1.918559         0.703242
 C         2.713085        -0.089117        -0.478292
 O         3.195197         0.625390        -1.678673
 C         2.739103        -1.551113        -0.182633
 H        -0.182039         0.678737        -1.392120
 H        -0.777504         0.073908         0.195219
 H         0.085584         1.671124        -0.035236
 H         0.966866        -1.926328         1.287406
 H         2.027876         0.067374         2.812496
 H         3.596361        -0.792971         2.591928
 H         3.768393         2.082110        -0.037411
 H         3.299204         0.018111        -2.402943
 H         2.223141        -2.167632        -1.011976
 H         3.551779        -2.168618         0.031648
