19
Iteration:   716charge 0 multiplicity 1
 C         0.144905         0.693531        -0.427450
 C         1.481677         0.040278         0.065263
 C         1.933684        -1.432854         0.544695
 C         2.525144        -0.720774         1.810510
 C         2.589208         0.524868         0.910887
 O         2.773532         1.868453         1.261800
 C         2.846659         0.019555        -0.533080
 O         3.316839         1.001919        -1.421910
 C         2.958751        -1.518050        -0.542512
 H         0.295393         1.572417        -1.013206
 H        -0.563189         0.087419        -0.896011
 H        -0.477321         1.113869         0.443543
 H         1.044094        -2.208186         0.704783
 H         1.770126        -0.631266         2.603081
 H         3.334818        -1.104871         2.375266
 H         2.996880         2.308337         0.399273
 H         2.961928         0.901506        -2.229638
 H         2.727489        -2.008752        -1.524612
 H         4.030782        -1.914355        -0.129026
