19
Iteration:  3094charge 0 multiplicity 1
 C         0.068113         0.602756        -0.299019
 C         1.316845         0.117983         0.251584
 C         1.753181        -1.172328         0.852158
 C         2.716032        -0.372579         1.890221
 C         2.720205         0.644209         0.723116
 O         3.199234         1.967751         0.715941
 C         2.722915        -0.097187        -0.513681
 O         3.269459         0.634355        -1.497546
 C         2.708103        -1.664837        -0.293296
 H         0.129635         0.355402        -1.449343
 H        -0.804105        -0.131418         0.048766
 H        -0.281173         1.649033        -0.107409
 H         0.994347        -1.890046         1.454759
 H         2.034835        -0.031489         2.649524
 H         3.667866        -0.854617         2.200380
 H         3.331579         2.031836        -0.314423
 H         2.884302         0.299739        -2.292735
 H         2.162956        -2.310305        -0.965603
 H         3.651310        -2.123422         0.047197
