19
Iteration:  1666
 C         0.136833         0.646552        -0.431826
 C         1.372211         0.043286         0.144403
 C         1.800289        -1.349135         0.837607
 C         2.697084        -0.516383         1.776384
 C         2.606510         0.630194         0.838819
 O         2.981902         1.915841         0.955755
 C         2.667820         0.014265        -0.558321
 O         3.290256         0.762729        -1.493655
 C         2.865155        -1.568817        -0.318482
 H        -0.227245         1.493127         0.188205
 H         0.240867         1.084808        -1.402758
 H        -0.797203        -0.034658        -0.221910
 H         1.066948        -2.067889         1.043789
 H         2.305465        -0.191773         2.741194
 H         3.615520        -1.027718         2.027905
 H         3.883407         2.046233         0.504578
 H         2.834590         0.605896        -2.419424
 H         2.513680        -2.211897        -1.173843
 H         3.780898        -2.031743        -0.042107
