19
Iteration:  4191charge 0 multiplicity 1
 C         0.129321         0.876151        -0.248804
 C         1.379084         0.127179         0.154099
 C         1.862614        -1.174253         1.026494
 C         2.699634        -0.286963         1.874722
 C         2.689298         0.637367         0.687099
 O         3.006793         2.012273         0.735689
 C         2.726928        -0.203364        -0.556692
 O         3.278081         0.284129        -1.812105
 C         2.681839        -1.640398        -0.102528
 H        -0.165599         1.181751        -1.254800
 H        -0.852686         0.307836         0.110319
 H         0.201923         1.773767         0.354342
 H         1.197027        -1.915307         1.480925
 H         2.265635         0.014418         2.782050
 H         3.681410        -0.678712         2.069029
 H         3.950356         2.066895         0.787399
 H         2.580898         0.076563        -2.365340
 H         2.258017        -2.281231        -1.000861
 H         3.626213        -2.007821         0.326754
