19
Iteration:  3531charge 0 multiplicity 1
 C         0.105530         0.749313        -0.306051
 C         1.332775         0.043117         0.104188
 C         1.772787        -1.299559         0.901466
 C         2.650111        -0.487752         1.864359
 C         2.588888         0.611785         0.797189
 O         3.016513         1.964580         0.815964
 C         2.782752        -0.094005        -0.515799
 O         3.404828         0.615557        -1.604741
 C         2.781350        -1.551909        -0.275378
 H         0.444319         1.758612        -0.726469
 H        -0.390197        -0.008640        -1.015104
 H        -0.517332         1.035356         0.596067
 H         1.153694        -2.132589         1.344969
 H         2.375321        -0.323594         2.859848
 H         3.597363        -0.970230         2.047240
 H         3.415064         2.383401        -0.041317
 H         2.515944         0.781336        -2.144407
 H         2.092682        -2.129457        -1.008999
 H         3.731483        -2.013706        -0.037011
