19
Iteration:  3972charge 0 multiplicity 1
 C         0.186932         0.831416        -0.274926
 C         1.388631         0.073587         0.055127
 C         1.834021        -1.278492         1.007746
 C         2.659716        -0.287225         1.914300
 C         2.662413         0.611951         0.727520
 O         3.052497         1.925542         0.725952
 C         2.686192        -0.231180        -0.552360
 O         3.138023         0.592278        -1.723589
 C         2.779915        -1.654800        -0.116264
 H         0.386112         1.829788         0.111108
 H         0.157800         0.978692        -1.388491
 H        -0.721605         0.540221         0.134707
 H         1.039005        -1.861677         1.516611
 H         2.158046        -0.035223         2.869371
 H         3.665173        -0.737850         2.257900
 H         4.054937         1.803480         0.810127
 H         2.938341        -0.046634        -2.513778
 H         2.428662        -2.301203        -1.003814
 H         3.787673        -1.923219         0.118400
