19
Iteration:  4029charge 0 multiplicity 1
 C         0.078881         0.639976        -0.301798
 C         1.423857         0.130041         0.133681
 C         1.797806        -1.142573         0.979254
 C         2.702821        -0.246203         1.921993
 C         2.743906         0.675657         0.793403
 O         3.146480         2.006208         0.898215
 C         2.774050        -0.199660        -0.559844
 O         3.244707         0.400430        -1.793754
 C         2.598663        -1.678602        -0.226318
 H        -0.436591         1.142026         0.482963
 H         0.498892         1.432522        -0.890523
 H        -0.490655        -0.002070        -0.953350
 H         1.040490        -1.851507         1.391609
 H         2.154615         0.070249         2.847231
 H         3.721382        -0.766270         2.076749
 H         3.204260         2.423341         0.044363
 H         2.574450         0.610432        -2.344870
 H         1.865748        -2.101377        -0.911958
 H         3.503773        -2.297195        -0.203177
