19
Iteration:   184charge 0 multiplicity 1
 C         0.084914         0.613234        -0.356233
 C         1.417481        -0.015715        -0.149676
 C         1.916867        -1.429256         0.329178
 C         2.533452        -0.807164         1.657638
 C         2.483353         0.441322         0.915515
 O         2.618771         1.724058         1.532122
 C         2.802397         0.144683        -0.620690
 O         3.514786         1.231928        -1.226370
 C         3.074347        -1.407443        -0.590769
 H        -0.018879         1.675250         0.103803
 H        -0.107825         0.619231        -1.450150
 H        -0.653941         0.030930         0.200046
 H         1.106791        -2.271713         0.358464
 H         1.813002        -0.861057         2.521595
 H         3.457133        -1.243855         1.986372
 H         3.468110         2.216836         1.169615
 H         3.374651         1.053586        -2.207464
 H         2.934952        -1.824742        -1.623262
 H         4.054082        -1.840214        -0.054136
