19
Iteration:  1582charge 0 multiplicity 1
 C        -0.007148         0.731132        -0.258195
 C         1.351433         0.031589         0.007116
 C         1.844563        -1.372776         0.771906
 C         2.590210        -0.493098         1.857241
 C         2.561023         0.628992         0.807439
 O         3.000092         1.904499         1.118152
 C         2.745208        -0.069522        -0.636719
 O         3.403815         0.727053        -1.610031
 C         2.927039        -1.509411        -0.372074
 H         0.039539         1.596701        -0.945392
 H        -0.636212        -0.086897        -0.615021
 H        -0.474592         1.084360         0.684454
 H         1.278979        -2.233013         1.103777
 H         1.965929        -0.273095         2.739607
 H         3.636437        -0.910087         2.158865
 H         3.472495         2.234279         0.264848
 H         2.918960         0.551515        -2.483103
 H         2.621974        -2.204593        -1.182893
 H         3.893800        -1.907834         0.123016
