19
Iteration:  1938charge 0 multiplicity 1
 C         0.068386         0.633566        -0.320283
 C         1.261618         0.006325         0.228646
 C         1.852986        -1.301378         0.889833
 C         2.667040        -0.409610         1.841350
 C         2.605787         0.628531         0.744323
 O         3.111751         1.956537         0.857774
 C         2.662803        -0.072017        -0.573962
 O         3.357701         0.685788        -1.549334
 C         2.794889        -1.558559        -0.281112
 H         0.408558         1.640024        -0.698077
 H        -0.267734         0.172735        -1.343290
 H        -0.778483         0.798933         0.328260
 H         1.134312        -2.011791         1.292155
 H         2.134411        -0.328688         2.793207
 H         3.591724        -0.796575         2.060448
 H         3.622222         1.965978         0.047509
 H         2.943687         0.647172        -2.350429
 H         2.237853        -2.112354        -1.111007
 H         3.827870        -2.056215        -0.196421
