19
Iteration:  4751
 C         0.037055         0.831647        -0.328948
 C         1.321814         0.138304         0.179415
 C         1.810220        -1.019074         1.223030
 C         2.862018        -0.077690         1.947239
 C         2.750294         0.639963         0.639073
 O         3.362196         1.899356         0.336784
 C         2.607816        -0.300746        -0.558935
 O         3.030029         0.137819        -1.750084
 C         2.632940        -1.688711         0.078957
 H        -0.288243         0.464367        -1.274171
 H        -0.855742         0.804974         0.381672
 H         0.335546         1.886291        -0.447753
 H         1.038322        -1.560253         1.732564
 H         2.499932         0.488992         2.722747
 H         3.767783        -0.584327         2.198053
 H         3.413365         2.518953         1.044469
 H         3.153685         1.026456        -1.553934
 H         2.057939        -2.487069        -0.494961
 H         3.663026        -2.145349         0.212326
