19
Iteration:  4046charge 0 multiplicity 1
 C         0.096858         0.667205        -0.321963
 C         1.411549         0.149694         0.157237
 C         1.757890        -1.163724         0.985939
 C         2.738005        -0.298835         1.851461
 C         2.729949         0.658207         0.663639
 O         3.217654         2.020278         0.897498
 C         2.700844        -0.185447        -0.598954
 O         3.265294         0.453748        -1.695500
 C         2.628057        -1.728701        -0.202466
 H        -0.633501         0.449944         0.524772
 H        -0.211912         1.740420        -0.611618
 H        -0.195663        -0.099751        -1.106863
 H         1.030917        -1.693396         1.594730
 H         2.143282         0.267710         2.559210
 H         3.565325        -0.593647         2.436827
 H         3.305649         2.354366         0.002511
 H         2.502260         0.554032        -2.220530
 H         1.886994        -2.142732        -0.964131
 H         3.463676        -2.290324         0.224393
