19
Iteration:   603
 C         0.127004         0.585244        -0.362282
 C         1.436309         0.009559         0.010501
 C         1.844161        -1.405088         0.486607
 C         2.445441        -0.659474         1.779133
 C         2.585687         0.485934         0.909824
 O         2.848421         1.829697         1.312032
 C         2.796287         0.070557        -0.580070
 O         3.409090         1.052731        -1.337489
 C         3.021348        -1.472619        -0.587070
 H        -0.584773        -0.252523        -0.357754
 H        -0.155674         1.374185         0.406589
 H         0.133112         1.147148        -1.274835
 H         1.070476        -2.224738         0.714026
 H         1.484660        -0.584557         2.381108
 H         3.276708        -1.155101         2.338739
 H         2.942580         2.272309         0.437941
 H         3.044588         1.108424        -2.307993
 H         2.823504        -2.056667        -1.528670
 H         4.099484        -1.793806        -0.167465
