19
Iteration:   555
 C         0.159160         0.701452        -0.486947
 C         1.422445         0.072452         0.026686
 C         1.850258        -1.403099         0.512839
 C         2.618296        -0.810329         1.784833
 C         2.533114         0.486822         0.916822
 O         2.714626         1.852532         1.392280
 C         2.796809         0.061983        -0.546163
 O         3.325612         1.005549        -1.399411
 C         3.016415        -1.449758        -0.528241
 H        -0.728273         0.423876         0.127321
 H         0.301044         1.771089        -0.657238
 H        -0.009821         0.311489        -1.510029
 H         1.280050        -2.228239         0.380584
 H         2.048521        -0.792434         2.704645
 H         3.681785        -1.199384         1.988272
 H         3.511832         2.277422         0.889277
 H         2.967168         0.968502        -2.227556
 H         2.845459        -1.994550        -1.515229
 H         4.014399        -1.857748        -0.105529
