19
Iteration:  1164charge 0 multiplicity 1
 C         0.127025         0.589486        -0.265397
 C         1.440200         0.019386         0.079389
 C         1.790097        -1.382354         0.652458
 C         2.439768        -0.634859         1.882243
 C         2.576178         0.579126         0.889115
 O         2.945863         1.930454         1.137585
 C         2.776793         0.019917        -0.566136
 O         3.420905         0.852497        -1.564065
 C         2.975941        -1.470524        -0.520059
 H         0.265990         1.549949        -0.749650
 H        -0.385452         0.007171        -0.980856
 H        -0.427854         0.781222         0.705656
 H         0.878279        -2.074260         0.759544
 H         1.753836        -0.341857         2.614205
 H         3.281447        -1.074117         2.373584
 H         3.146077         2.227415         0.245836
 H         2.877763         1.064045        -2.275539
 H         2.580782        -2.031089        -1.389217
 H         3.981416        -1.958657        -0.194391
