19
Iteration:  2499charge 0 multiplicity 1
 C         0.023724         0.746007        -0.145531
 C         1.411186         0.138765         0.129600
 C         1.796426        -1.163456         0.925988
 C         2.765154        -0.300125         1.863051
 C         2.692403         0.670053         0.731963
 O         3.033857         1.968322         0.674718
 C         2.692270        -0.230441        -0.633204
 O         3.358261         0.471164        -1.617646
 C         2.676059        -1.659562        -0.138783
 H        -0.684044        -0.103356         0.137120
 H        -0.153135         1.721417         0.429881
 H        -0.209763         1.037862        -1.231937
 H         1.119836        -1.886137         1.348726
 H         2.314802         0.064560         2.822272
 H         3.749027        -0.926971         2.158640
 H         3.409938         2.223965        -0.228920
 H         2.837971         0.210240        -2.492752
 H         2.249971        -2.426113        -0.775668
 H         3.734865        -2.046102         0.210724
