19
Iteration:  2441
 C         0.109835         0.728103        -0.235044
 C         1.448069         0.148146         0.164931
 C         1.793803        -1.176824         0.930356
 C         2.607892        -0.278043         1.999838
 C         2.668242         0.685861         0.807522
 O         3.159289         1.979145         0.799076
 C         2.710818        -0.201833        -0.623552
 O         3.136142         0.412815        -1.823889
 C         2.847438        -1.641002        -0.187099
 H        -0.698853         0.404608         0.397546
 H        -0.028759         1.780041        -0.239696
 H        -0.160667         0.328422        -1.239002
 H         1.073970        -1.894743         1.340942
 H         2.044218         0.083594         2.834389
 H         3.529481        -0.968279         2.277268
 H         3.749312         2.095509         0.027451
 H         2.488116         0.324076        -2.451412
 H         2.543704        -2.350345        -0.943887
 H         3.828001        -1.931796         0.198260
