19
Iteration:  3066charge 0 multiplicity 1
 C         0.035446         0.679330        -0.330210
 C         1.328157         0.081964         0.061850
 C         1.872629        -1.265323         0.999515
 C         2.668283        -0.334066         1.933014
 C         2.628122         0.659019         0.783062
 O         3.175155         1.926049         0.804705
 C         2.695181        -0.078105        -0.565863
 O         3.296609         0.566311        -1.636402
 C         2.743389        -1.598968        -0.247583
 H         0.118481         0.859672        -1.365961
 H        -0.666509        -0.057132        -0.084295
 H        -0.176949         1.568339         0.254800
 H         1.183594        -1.921093         1.425543
 H         2.213152        -0.053946         2.932844
 H         3.678738        -0.742349         2.190889
 H         3.486192         1.906185        -0.160006
 H         2.650219         0.418943        -2.383673
 H         1.915634        -2.118159        -0.789239
 H         3.727645        -2.146501        -0.225169
