19
Iteration:  3932charge 0 multiplicity 1
 C         0.111961         0.760072        -0.153011
 C         1.447387         0.089533         0.110531
 C         1.738615        -1.206611         0.930533
 C         2.622784        -0.383148         1.897400
 C         2.735031         0.653968         0.785670
 O         3.031453         2.041663         0.713171
 C         2.731110        -0.121552        -0.596530
 O         3.315940         0.394717        -1.641386
 C         2.738474        -1.638752        -0.269854
 H         0.301069         1.716071        -0.658275
 H        -0.493268         0.191846        -0.842077
 H        -0.551609         0.820050         0.776987
 H         1.054788        -1.954982         1.342093
 H         2.005587         0.022533         2.698805
 H         3.573649        -0.711149         2.239217
 H         3.771925         2.360515         0.224471
 H         2.632866         0.315424        -2.384566
 H         2.244894        -2.194638        -0.988178
 H         3.727551        -2.078222         0.073809
