19
Iteration:  3697charge 0 multiplicity 1
 C         0.012404         0.768420        -0.172424
 C         1.348763         0.119409         0.038014
 C         1.789820        -1.249020         0.868998
 C         2.602725        -0.478185         1.913529
 C         2.604722         0.610803         0.795831
 O         3.092895         1.925619         0.694726
 C         2.721852        -0.149824        -0.552207
 O         3.371831         0.665948        -1.614230
 C         2.808147        -1.614745        -0.204953
 H        -0.631388         0.559054         0.766541
 H         0.259054         1.906711        -0.270276
 H        -0.509234         0.457939        -1.072492
 H         1.218932        -2.017218         1.262501
 H         2.206030        -0.098378         2.858483
 H         3.633824        -0.835422         2.167956
 H         3.662255         1.748908        -0.011517
 H         3.245373         0.187429        -2.396622
 H         2.385079        -2.280975        -1.052306
 H         3.758309        -1.856418         0.305683
