19
Iteration:  3602charge 0 multiplicity 1
 C         0.077970         0.745606        -0.415346
 C         1.450007         0.126471         0.141688
 C         1.826974        -1.197575         0.864670
 C         2.638816        -0.433397         1.925841
 C         2.666984         0.662788         0.889397
 O         3.059936         1.989264         1.020855
 C         2.761991        -0.108010        -0.620370
 O         3.170338         0.533881        -1.744021
 C         2.789902        -1.652691        -0.309468
 H        -0.118725         1.704236        -0.026393
 H         0.173795         0.698864        -1.473377
 H        -0.770657         0.121468        -0.126866
 H         1.070895        -1.991352         1.051517
 H         2.171969        -0.104836         2.938398
 H         3.604205        -0.903496         2.278116
 H         4.056874         1.890384         0.742285
 H         2.667717         0.008318        -2.508618
 H         2.420015        -2.340645        -1.000544
 H         3.810388        -1.849791         0.073737
