19
Iteration:   123charge 0 multiplicity 1
 C         0.082248         0.655210        -0.494312
 C         1.359950        -0.054302        -0.019960
 C         1.971647        -1.497823         0.382443
 C         2.470318        -0.860108         1.674142
 C         2.481004         0.455216         0.952467
 O         2.687659         1.714072         1.517351
 C         2.799317         0.168674        -0.505728
 O         3.476246         1.196447        -1.183549
 C         3.138923        -1.320942        -0.737688
 H         0.201833         0.989835        -1.457042
 H        -0.716607        -0.070390        -0.502172
 H        -0.410067         1.360987         0.170494
 H         1.411284        -2.325621         0.376482
 H         1.786247        -0.828582         2.479893
 H         3.469634        -1.315057         2.005257
 H         3.467388         2.159517         0.999141
 H         3.053259         1.507940        -1.958474
 H         2.722939        -1.602503        -1.669542
 H         4.072522        -1.674829        -0.675663
