19
Iteration:  4418charge 0 multiplicity 1
 C         0.228861         0.789868        -0.223041
 C         1.404136         0.153960         0.269518
 C         1.788759        -1.100180         1.066889
 C         2.697508        -0.254386         1.975684
 C         2.770764         0.689475         0.756993
 O         3.127888         1.993218         0.498347
 C         2.737425        -0.222776        -0.573831
 O         3.114989         0.171830        -1.817088
 C         2.623126        -1.676862        -0.175641
 H        -0.695644         0.209285        -0.127836
 H         0.082554         1.704114         0.432584
 H         0.483997         1.195857        -1.229926
 H         1.101064        -1.816473         1.478911
 H         2.134665         0.387683         2.724027
 H         3.733340        -0.704340         2.307269
 H         2.545837         2.614895         1.027920
 H         3.715420         0.999553        -1.827101
 H         1.967604        -2.070496        -0.925868
 H         3.365514        -2.413819         0.152172
