19
Iteration:  1108charge 0 multiplicity 1
 C         0.169160         0.662020        -0.371479
 C         1.356900         0.022660         0.101221
 C         1.923711        -1.411293         0.688424
 C         2.605524        -0.623739         1.771243
 C         2.584806         0.575462         0.864847
 O         2.811800         1.906315         1.159817
 C         2.706297         0.008314        -0.576967
 O         3.379985         0.831501        -1.428200
 C         2.846643        -1.430741        -0.509720
 H         0.444982         1.054251        -1.321448
 H        -0.753326         0.096431        -0.437242
 H        -0.132835         1.623866         0.206853
 H         1.374371        -2.336517         0.944852
 H         2.008144        -0.464815         2.613605
 H         3.609327        -0.978643         2.042056
 H         3.707096         2.181030         0.715059
 H         3.546466         0.493375        -2.389438
 H         2.239283        -1.895502        -1.313013
 H         3.887481        -1.890329        -0.268562
