19
Iteration:  1140
 C         0.025668         0.686670        -0.316786
 C         1.419445         0.101749        -0.004841
 C         1.840738        -1.372564         0.639153
 C         2.630601        -0.609763         1.751779
 C         2.635333         0.559905         0.830203
 O         2.817818         1.853974         1.181849
 C         2.813173        -0.012558        -0.561417
 O         3.404739         0.861234        -1.467878
 C         2.918032        -1.532961        -0.382729
 H         0.045396         1.406214        -1.132208
 H        -0.635818        -0.031248        -0.738345
 H        -0.305258         1.265810         0.588721
 H         1.081199        -2.114951         0.862622
 H         2.093372        -0.417433         2.593018
 H         3.533173        -0.998040         2.080689
 H         3.337045         2.234856         0.470064
 H         2.926958         0.941627        -2.313177
 H         2.509409        -2.099459        -1.243672
 H         3.785231        -2.157412         0.050605
