19
Iteration:  1415charge 0 multiplicity 1
 C         0.093858         0.645698        -0.298430
 C         1.322336         0.003879         0.084896
 C         1.898696        -1.373330         0.745167
 C         2.566848        -0.513242         1.862039
 C         2.564155         0.617959         0.828650
 O         2.957224         1.900497         1.043796
 C         2.727709        -0.041123        -0.613573
 O         3.399558         0.831726        -1.494010
 C         2.870524        -1.483825        -0.471941
 H        -0.796384         0.062995        -0.379322
 H        -0.025882         1.438584         0.375755
 H         0.351992         0.990304        -1.347304
 H         1.353693        -2.274613         1.158514
 H         1.845516        -0.425633         2.690221
 H         3.359588        -1.149028         2.417135
 H         3.793868         2.023010         0.518708
 H         3.053147         0.711721        -2.446832
 H         2.353566        -2.149269        -1.078662
 H         3.797338        -1.891673        -0.245886
