19
Iteration:   575charge 0 multiplicity 1
 C         0.061479         0.735690        -0.486163
 C         1.385088        -0.016573        -0.034486
 C         1.934116        -1.472436         0.599977
 C         2.543447        -0.677728         1.750875
 C         2.471495         0.458702         0.915297
 O         2.814560         1.750658         1.390613
 C         2.838138         0.111210        -0.501661
 O         3.400395         1.037261        -1.426351
 C         3.057986        -1.435898        -0.537888
 H        -0.844380         0.278213        -0.115625
 H         0.194802         1.702807        -0.064767
 H        -0.125896         0.867332        -1.630392
 H         1.330809        -2.395578         0.922982
 H         1.825757        -0.651138         2.562890
 H         3.461163        -1.072758         2.157609
 H         3.062017         2.163646         0.489349
 H         2.856139         1.061759        -2.258726
 H         2.614845        -1.882628        -1.415511
 H         4.011735        -1.795615        -0.430488
