19
Iteration:  2112
 C         0.083004         0.664059        -0.344388
 C         1.427162         0.143339         0.116696
 C         1.820743        -1.258265         0.951081
 C         2.747475        -0.379876         1.882606
 C         2.637003         0.668354         0.785011
 O         3.013267         1.951186         0.814342
 C         2.686504        -0.176300        -0.584601
 O         3.325738         0.647159        -1.562895
 C         2.708957        -1.642388        -0.270310
 H        -0.646407        -0.110903        -0.237548
 H        -0.140527         1.559745         0.294047
 H        -0.015609         1.087620        -1.309669
 H         1.330849        -2.194604         1.345150
 H         2.225448        -0.151313         2.818833
 H         3.766633        -0.948215         1.983695
 H         3.568221         2.148509         0.106787
 H         2.725749         0.551214        -2.406407
 H         2.088811        -2.278704        -0.841026
 H         3.670388        -2.143068        -0.113829
