19
Iteration:  3553
 C         0.141822         0.749044        -0.387257
 C         1.427064         0.124597         0.153493
 C         1.787218        -1.237338         0.822454
 C         2.681785        -0.449868         1.924297
 C         2.688779         0.608184         0.841339
 O         3.006893         1.957016         0.853889
 C         2.692333        -0.139507        -0.581385
 O         3.228377         0.650189        -1.604305
 C         2.804878        -1.708179        -0.253715
 H         0.350407         1.874324        -0.370308
 H        -0.110497         0.274203        -1.406674
 H        -0.664686         0.607603         0.378672
 H         1.026687        -1.943832         1.207229
 H         2.083913        -0.300650         2.764121
 H         3.595454        -0.650445         2.410842
 H         3.749429         2.172376         0.344515
 H         2.660539         0.499657        -2.299672
 H         2.436896        -2.166686        -1.248942
 H         3.745144        -2.129057         0.090845
