19
Iteration:  4134
 C         0.129659         0.759399        -0.221780
 C         1.397420         0.107327         0.089003
 C         1.777293        -1.182239         1.015696
 C         2.645381        -0.277085         1.937795
 C         2.661948         0.600454         0.686984
 O         3.156194         1.973486         0.717669
 C         2.803594        -0.183657        -0.535970
 O         3.212587         0.509247        -1.743653
 C         2.666058        -1.693356        -0.127092
 H        -0.544835         0.074304        -0.797158
 H        -0.370377         1.057209         0.826847
 H         0.086109         1.738518        -0.774509
 H         0.974020        -1.805794         1.372734
 H         2.244561         0.181347         2.840712
 H         3.607681        -0.798847         2.139499
 H         3.383636         2.256060        -0.219485
 H         3.588044        -0.183364        -2.385936
 H         1.970386        -2.177719        -0.940276
 H         3.513147        -2.319945         0.304776
