19
Iteration:   637charge 0 multiplicity 1
 C         0.050468         0.515309        -0.343399
 C         1.348553        -0.000356        -0.023281
 C         1.797962        -1.390034         0.504872
 C         2.536396        -0.717288         1.745975
 C         2.531858         0.559545         0.936737
 O         2.836870         1.847800         1.227145
 C         2.836333         0.119174        -0.527217
 O         3.528068         1.035257        -1.354913
 C         2.942149        -1.406767        -0.533996
 H        -0.534629        -0.093402        -1.052829
 H        -0.545292         0.470234         0.603806
 H         0.116691         1.538557        -0.750274
 H         1.092774        -2.323967         0.661296
 H         1.745292        -0.671123         2.582536
 H         3.495874        -1.098261         2.146060
 H         3.739440         1.963576         0.752071
 H         3.168141         0.947534        -2.227633
 H         2.725949        -1.807340        -1.554193
 H         3.957564        -1.881272        -0.123071
