19
Iteration:  2423
 C         0.132852         0.696684        -0.331544
 C         1.385865         0.040298         0.102220
 C         1.779409        -1.206888         1.020157
 C         2.734876        -0.379025         1.896356
 C         2.664650         0.694197         0.763884
 O         3.151383         1.982046         0.795207
 C         2.715171        -0.124202        -0.568230
 O         3.154517         0.499553        -1.781451
 C         2.769627        -1.609032        -0.086345
 H        -0.681911         0.822809         0.468922
 H         0.479675         1.774713        -0.514700
 H        -0.447958         0.183497        -1.132549
 H         1.001866        -1.868842         1.312030
 H         2.195644        -0.000991         2.783188
 H         3.708390        -0.620352         2.090196
 H         3.674057         2.092032        -0.023729
 H         2.401037         0.380682        -2.275590
 H         2.210097        -2.315786        -0.723072
 H         3.704926        -2.183833         0.325304
