19
Iteration:  1416
 C         0.099115         0.645459        -0.296465
 C         1.327953         0.008756         0.082746
 C         1.902986        -1.373782         0.747477
 C         2.560405        -0.522160         1.862910
 C         2.559039         0.619651         0.829461
 O         2.963528         1.906830         1.043629
 C         2.728397        -0.045241        -0.620831
 O         3.391114         0.834169        -1.499021
 C         2.872877        -1.491196        -0.465305
 H        -0.790112         0.047825        -0.390777
 H        -0.042077         1.446231         0.371007
 H         0.337898         0.993039        -1.324831
 H         1.353886        -2.270063         1.132029
 H         1.831671        -0.414555         2.658596
 H         3.357483        -1.159689         2.415828
 H         3.771127         2.052287         0.551101
 H         3.090231         0.722508        -2.400962
 H         2.351247        -2.140106        -1.045268
 H         3.779851        -1.907261        -0.260139
