19
Iteration:   224charge 0 multiplicity 1
 C         0.095958         0.586055        -0.420448
 C         1.416068         0.026085        -0.011855
 C         1.905478        -1.443613         0.332499
 C         2.488915        -0.908370         1.738595
 C         2.562366         0.473369         1.011268
 O         2.627713         1.780926         1.451516
 C         2.864979         0.194964        -0.501737
 O         3.515617         1.091835        -1.289047
 C         3.064283        -1.314620        -0.676687
 H        -0.437444         1.048315         0.389446
 H         0.320625         1.379687        -1.131244
 H        -0.703935        -0.189009        -0.741584
 H         1.285111        -2.514437         0.301807
 H         1.536876        -0.902091         2.346325
 H         3.494515        -1.274154         2.122919
 H         3.041942         2.283196         0.743472
 H         3.037983         1.487481        -1.987193
 H         2.670075        -1.670564        -1.642596
 H         4.011548        -1.657423        -0.538098
