19
Iteration:  1441charge 0 multiplicity 1
 C         0.094540         0.646738        -0.317883
 C         1.440951         0.100733         0.020909
 C         1.747380        -1.349354         0.658239
 C         2.550347        -0.498470         1.888312
 C         2.706297         0.571712         0.862136
 O         2.941989         1.908587         1.080436
 C         2.868212        -0.058611        -0.516224
 O         3.233687         0.868493        -1.554524
 C         2.923742        -1.603313        -0.427981
 H        -0.590966        -0.211623        -0.555576
 H        -0.273784         1.197993         0.603485
 H         0.073520         1.261510        -1.169655
 H         0.999107        -2.028723         0.997690
 H         1.830964        -0.325815         2.687485
 H         3.393963        -1.056290         2.349939
 H         3.685477         2.213692         0.445236
 H         2.968903         0.401584        -2.468424
 H         2.644340        -2.219647        -1.278515
 H         3.805645        -2.053263         0.063802
