19
Iteration:  4184charge 0 multiplicity 1
 C         0.091806         0.882324        -0.260694
 C         1.381948         0.121788         0.173304
 C         1.843522        -1.207113         1.032828
 C         2.727034        -0.295552         1.845353
 C         2.665392         0.638016         0.774732
 O         2.996615         1.996477         0.746381
 C         2.739718        -0.159064        -0.593962
 O         3.279246         0.248669        -1.810122
 C         2.721536        -1.584735        -0.149120
 H        -0.195146         1.074877        -1.312851
 H        -0.772711         0.524890         0.177103
 H         0.202954         1.848544         0.270344
 H         1.205032        -1.806143         1.717786
 H         2.193700        -0.010338         2.793547
 H         3.700331        -0.683433         2.229351
 H         3.960503         2.026906         0.596093
 H         2.841068        -0.127846        -2.670560
 H         2.065858        -2.151567        -0.712119
 H         3.658008        -2.058421         0.142320
