19
Iteration:  2813charge 0 multiplicity 1
 C         0.211626         0.754996        -0.334233
 C         1.420077         0.187806         0.231194
 C         1.768798        -1.222318         0.998121
 C         2.837520        -0.340958         1.892493
 C         2.667475         0.647829         0.764541
 O         3.035950         1.972947         0.685538
 C         2.712194        -0.187943        -0.551021
 O         3.224327         0.553607        -1.656453
 C         2.666231        -1.775849        -0.157102
 H        -0.613251         0.119295        -0.033410
 H        -0.101093         1.681533         0.101191
 H         0.175469         0.704656        -1.455984
 H         0.883895        -1.768930         1.535378
 H         2.315236         0.106586         2.790012
 H         3.761890        -0.825696         2.040034
 H         3.312459         2.166371        -0.264793
 H         2.431146         0.480057        -2.345183
 H         2.015048        -2.309146        -0.857198
 H         3.580068        -2.226831        -0.009315
