19
Iteration:  3173
 C         0.129946         0.708255        -0.232655
 C         1.433081         0.115040         0.093804
 C         1.793494        -1.242128         0.888931
 C         2.618682        -0.438668         1.961116
 C         2.665684         0.618413         0.792054
 O         3.022544         2.051242         0.938792
 C         2.804135        -0.133615        -0.632631
 O         3.226223         0.516067        -1.843864
 C         2.846906        -1.627710        -0.175229
 H        -0.838634         0.227574        -0.533751
 H        -0.249325         1.487664         0.519471
 H         0.339264         1.410215        -1.103053
 H         1.013973        -1.966012         1.271745
 H         1.979728        -0.235619         2.866884
 H         3.559423        -0.892866         2.247896
 H         3.570635         2.180987         0.206792
 H         2.428098         0.475522        -2.467175
 H         2.349343        -2.158163        -0.903042
 H         3.695650        -2.285951         0.120594
