19
Iteration:  1740charge 0 multiplicity 1
 C         0.023975         0.668419        -0.249623
 C         1.378461         0.085661         0.016510
 C         1.797143        -1.249134         0.773577
 C         2.579201        -0.419671         1.891207
 C         2.634893         0.604894         0.853415
 O         3.031427         1.920024         1.059792
 C         2.799328        -0.101226        -0.587174
 O         3.360518         0.707342        -1.700177
 C         2.898811        -1.633261        -0.315768
 H        -0.733193         0.116719         0.258524
 H        -0.044532         1.778040        -0.065334
 H        -0.293082         0.464791        -1.258488
 H         1.295832        -2.051872         1.283143
 H         1.949047        -0.133700         2.875159
 H         3.604287        -0.870678         2.125004
 H         2.965083         2.273978         0.209425
 H         2.756639         0.522344        -2.375733
 H         2.392104        -2.088888        -1.179151
 H         3.829535        -2.197518        -0.115005
