19
Iteration:  2169charge 0 multiplicity 1
 C         0.026782         0.612958        -0.249957
 C         1.386533         0.072512         0.073477
 C         1.851150        -1.192885         0.917192
 C         2.572588        -0.259439         1.964175
 C         2.666962         0.665713         0.779378
 O         3.208596         1.926861         0.922918
 C         2.745678        -0.101293        -0.610788
 O         3.241214         0.585944        -1.707188
 C         2.794644        -1.664544        -0.321499
 H        -0.463294         0.186134        -1.127065
 H        -0.757942         0.380148         0.501894
 H         0.169610         1.598263        -0.532959
 H         1.116721        -1.957557         1.234205
 H         1.753856        -0.015103         2.754392
 H         3.458690        -0.689127         2.607317
 H         3.493404         2.288391         0.059653
 H         2.742757         0.030916        -2.364247
 H         2.291958        -2.304169        -0.993844
 H         3.801486        -1.999428        -0.121610
