19
Iteration:  2812
 C         0.209438         0.755670        -0.332206
 C         1.424114         0.185833         0.224968
 C         1.771736        -1.218713         0.996741
 C         2.830456        -0.342344         1.886921
 C         2.672136         0.641488         0.771208
 O         3.031672         1.968380         0.682780
 C         2.709185        -0.185806        -0.557086
 O         3.225773         0.553946        -1.655125
 C         2.666479        -1.771970        -0.153020
 H        -0.605239         0.128847        -0.043021
 H        -0.110365         1.680835         0.087491
 H         0.171855         0.728100        -1.434331
 H         0.875660        -1.723536         1.566587
 H         2.337582         0.108530         2.822629
 H         3.790208        -0.815131         2.023047
 H         3.299856         2.159202        -0.227208
 H         2.425622         0.457475        -2.335913
 H         2.042903        -2.296871        -0.849973
 H         3.582230        -2.239514        -0.008816
