19
Iteration:  2608
 C         0.048523         0.710565        -0.322935
 C         1.377542         0.122353         0.206445
 C         1.845660        -1.192299         0.939505
 C         2.695345        -0.194480         2.017564
 C         2.724921         0.677515         0.758309
 O         3.255574         1.964839         0.844140
 C         2.637495        -0.172278        -0.583409
 O         3.088024         0.299958        -1.791375
 C         2.809288        -1.609307        -0.185339
 H         0.084655         0.733329        -1.417174
 H        -0.850279         0.308722         0.157576
 H         0.245246         1.781659        -0.254753
 H         1.100168        -1.843253         1.451812
 H         1.893726         0.155083         2.631340
 H         3.777621        -0.538003         2.265548
 H         3.423030         2.302295        -0.095579
 H         2.399991         0.212009        -2.524223
 H         2.240209        -2.152526        -0.891799
 H         3.853494        -1.995128        -0.032822
