19
Iteration:   217charge 0 multiplicity 1
 C         0.022360         0.632539        -0.407342
 C         1.378029        -0.017837        -0.016149
 C         1.963690        -1.492463         0.322336
 C         2.505608        -0.863907         1.759745
 C         2.564083         0.465173         0.956745
 O         2.623381         1.758274         1.472949
 C         2.834517         0.192847        -0.458550
 O         3.573556         1.069508        -1.301596
 C         3.066929        -1.262040        -0.706441
 H        -0.421808         1.338913         0.392083
 H         0.089820         1.258711        -1.337123
 H        -0.630880        -0.117465        -0.752566
 H         1.285428        -2.407005         0.402457
 H         1.645045        -0.879204         2.465400
 H         3.324576        -1.316311         2.273764
 H         3.081797         2.155539         0.768021
 H         2.873226         1.357283        -2.003656
 H         2.789526        -1.461833        -1.758700
 H         4.118308        -1.705541        -0.473747
