19
Iteration:  1372charge 0 multiplicity 1
 C         0.074412         0.622561        -0.293451
 C         1.381755         0.034024         0.049295
 C         1.793587        -1.283538         0.693873
 C         2.612424        -0.619434         1.771745
 C         2.646245         0.611657         0.926569
 O         2.893724         2.003781         1.061918
 C         2.781147        -0.058028        -0.586402
 O         3.461201         0.847736        -1.499957
 C         2.812585        -1.646070        -0.417387
 H        -0.756926         0.024982         0.025714
 H         0.027452         1.529721         0.232214
 H        -0.170321         0.706372        -1.403810
 H         1.010669        -2.001437         1.140304
 H         2.091275        -0.558643         2.721072
 H         3.742894        -0.949630         2.030202
 H         3.064426         2.395403         0.248163
 H         3.079068         0.824354        -2.306405
 H         2.592513        -2.212191        -1.264732
 H         3.743379        -1.994354        -0.042244
