19
Iteration:   401
 C         0.108342         0.665078        -0.368766
 C         1.396933         0.082917        -0.048471
 C         1.884016        -1.460587         0.420199
 C         2.521081        -0.816349         1.749793
 C         2.452612         0.431790         0.922794
 O         2.687049         1.779140         1.315349
 C         2.824681         0.089936        -0.571711
 O         3.469475         1.174485        -1.266158
 C         3.093660        -1.448179        -0.553266
 H         0.046978         1.169331        -1.328454
 H        -0.599706        -0.177426        -0.456294
 H        -0.238560         1.317667         0.474441
 H         1.160470        -2.323857         0.492458
 H         1.945408        -0.766453         2.737645
 H         3.593178        -1.209737         1.910975
 H         3.317184         2.338344         0.742797
 H         3.253228         0.956722        -2.130603
 H         2.849785        -1.934789        -1.575221
 H         4.110761        -1.837016        -0.147003
