19
Iteration:   226charge 0 multiplicity 1
 C         0.117074         0.568780        -0.427246
 C         1.430803         0.034470        -0.008289
 C         1.894579        -1.426696         0.343176
 C         2.485788        -0.916999         1.721529
 C         2.549419         0.467204         1.021588
 O         2.632954         1.788971         1.443243
 C         2.872961         0.185615        -0.517349
 O         3.504394         1.102467        -1.279838
 C         3.056920        -1.325082        -0.669903
 H        -0.455406         0.996281         0.456592
 H         0.356418         1.405941        -1.094225
 H        -0.643306        -0.162194        -0.746539
 H         1.266823        -2.523721         0.286904
 H         1.549565        -0.911551         2.374229
 H         3.449161        -1.257997         2.074865
 H         3.016043         2.315336         0.797666
 H         3.008810         1.557299        -2.066240
 H         2.647136        -1.716818        -1.612932
 H         4.043833        -1.691314        -0.525051
