19
Iteration:  2261
 C         0.131038         0.753116        -0.220741
 C         1.341312         0.058047         0.117686
 C         1.816042        -1.263381         0.990243
 C         2.714592        -0.346889         1.912326
 C         2.661537         0.595288         0.709412
 O         2.977857         1.943176         0.742620
 C         2.765964        -0.178034        -0.516052
 O         3.280747         0.616355        -1.651926
 C         2.745316        -1.669347        -0.214916
 H         0.343096         1.537557        -0.963780
 H        -0.487825         0.122935        -0.771498
 H        -0.286699         1.322558         0.563237
 H         0.957230        -1.861489         1.287226
 H         2.322934         0.245468         2.766466
 H         3.750107        -0.625254         2.192267
 H         3.504234         2.185146        -0.110663
 H         3.021804         0.199010        -2.412075
 H         2.231088        -2.102522        -1.100850
 H         3.719817        -2.051451        -0.140656
