19
Iteration:  1019
 C         0.066975         0.610899        -0.396196
 C         1.395833         0.061229        -0.002440
 C         1.825853        -1.417005         0.645299
 C         2.482453        -0.656970         1.880638
 C         2.482288         0.576496         0.982532
 O         3.013336         1.844220         1.170829
 C         2.789744         0.098403        -0.570996
 O         3.404532         0.856973        -1.553910
 C         2.945005        -1.454076        -0.460664
 H        -0.187690         0.511181        -1.450767
 H        -0.661200        -0.034044         0.178372
 H        -0.036981         1.685189        -0.058252
 H         1.289501        -2.269698         1.001185
 H         1.831373        -0.529559         2.735640
 H         3.570163        -0.881510         2.238138
 H         3.451673         2.017235         0.283372
 H         2.741639         1.249794        -2.191653
 H         2.806698        -1.871525        -1.511704
 H         3.978627        -1.606758         0.071069
