19
Iteration:  3786
 C         0.144156         0.707244        -0.388655
 C         1.358316         0.159226         0.175306
 C         1.786228        -1.274416         0.984213
 C         2.715216        -0.383888         1.822879
 C         2.708103         0.613631         0.763365
 O         3.114245         1.999240         0.925647
 C         2.717384        -0.072749        -0.562534
 O         3.233469         0.504769        -1.677213
 C         2.727220        -1.675491        -0.222594
 H        -0.569527         0.005355        -0.873549
 H        -0.486177         1.438973         0.231167
 H         0.481352         1.400205        -1.190861
 H         1.111951        -2.059486         1.372634
 H         2.227096        -0.086098         2.754291
 H         3.660854        -0.733864         2.233532
 H         3.152892         2.388048         0.064954
 H         2.497632         0.535527        -2.201973
 H         2.162954        -2.223715        -1.060671
 H         3.650813        -2.298256        -0.069249
