19
Iteration:  3409
 C         0.216681         0.726788        -0.342746
 C         1.403708         0.096424         0.124887
 C         1.782023        -1.178994         0.875011
 C         2.694117        -0.468053         1.821544
 C         2.639055         0.609232         0.745473
 O         2.952294         1.956552         0.951497
 C         2.786694        -0.126228        -0.515686
 O         3.243353         0.559518        -1.600116
 C         2.789719        -1.597686        -0.310300
 H         0.468218         1.683220        -0.838966
 H        -0.348082         0.026566        -1.028810
 H        -0.458156         0.931110         0.572153
 H         1.105011        -2.084211         1.111773
 H         2.117320        -0.102584         2.628676
 H         3.558029        -0.927538         2.326176
 H         3.446594         2.186302         0.200991
 H         2.557790         0.875792        -2.122924
 H         2.251352        -2.295827        -1.020938
 H         3.754125        -1.973726        -0.131000
