19
Iteration:  1282
 C         0.082256         0.679259        -0.406640
 C         1.445409         0.043727         0.031630
 C         1.808316        -1.351836         0.721222
 C         2.604424        -0.549288         1.908797
 C         2.693457         0.539824         0.840516
 O         2.876031         1.885905         1.165734
 C         2.846523        -0.022113        -0.586424
 O         3.300061         0.879443        -1.541627
 C         2.885555        -1.565692        -0.451500
 H        -0.385888         1.344198         0.314139
 H         0.175780         1.290640        -1.309167
 H        -0.734118        -0.138108        -0.553884
 H         1.154614        -2.258864         0.880770
 H         2.033283        -0.297571         2.912152
 H         3.631535        -1.061170         2.204833
 H         3.453545         2.258980         0.529536
 H         2.675027         0.876703        -2.186518
 H         2.325046        -2.113450        -1.179230
 H         3.791007        -2.112036        -0.186178
