19
Iteration:  3668charge 0 multiplicity 1
 C         0.146879         0.690018        -0.191165
 C         1.400967         0.101283         0.108618
 C         1.818703        -1.251321         0.864103
 C         2.601024        -0.394840         1.883976
 C         2.650534         0.604664         0.744540
 O         3.066493         1.989832         0.786243
 C         2.698875        -0.189997        -0.574570
 O         3.384207         0.602205        -1.526894
 C         2.691008        -1.615915        -0.340758
 H        -0.249220         1.138649         0.707575
 H         0.267410         1.526228        -0.895400
 H        -0.657027         0.038766        -0.618520
 H         1.195211        -2.107922         1.277981
 H         1.958054         0.099963         2.671392
 H         3.423582        -0.634365         2.538537
 H         3.283186         2.156656        -0.140167
 H         2.982386         0.589947        -2.373519
 H         2.152568        -2.171873        -1.055029
 H         3.670075        -2.121588        -0.105501
