19
Iteration:   453charge 0 multiplicity 1
 C         0.084213         0.609236        -0.361101
 C         1.425847         0.057712        -0.066277
 C         1.918116        -1.390514         0.413934
 C         2.479356        -0.834060         1.824843
 C         2.463512         0.463797         1.000671
 O         2.759628         1.817917         1.338274
 C         2.870557         0.116049        -0.572525
 O         3.462602         1.063787        -1.343106
 C         3.055567        -1.375930        -0.598438
 H         0.053932         1.653297        -0.509052
 H        -0.290468         0.190716        -1.272320
 H        -0.612583         0.272349         0.534424
 H         1.128343        -2.284371         0.456748
 H         1.569571        -0.796705         2.499657
 H         3.348435        -1.298628         2.284340
 H         3.037701         2.297509         0.584545
 H         3.102843         1.054632        -2.290001
 H         2.799565        -1.888209        -1.584339
 H         4.069628        -1.737842        -0.204560
