19
Iteration:  4791charge 0 multiplicity 1
 C         0.132143         0.860052        -0.177711
 C         1.427351         0.101144         0.184657
 C         1.732291        -1.002796         1.170955
 C         2.742482        -0.096479         2.002018
 C         2.811058         0.722752         0.643234
 O         3.325851         1.954498         0.358479
 C         2.705947        -0.283797        -0.499788
 O         2.936085        -0.013213        -1.923597
 C         2.661837        -1.642860         0.054660
 H         0.363120         1.434684        -1.093669
 H        -0.730931         0.182675        -0.343570
 H        -0.043976         1.626243         0.611272
 H         1.059307        -1.696733         1.670765
 H         2.175027         0.591319         2.774663
 H         3.709199        -0.497222         2.448820
 H         2.767604         2.547938         0.957464
 H         3.765545         0.555966        -2.183065
 H         1.951235        -2.211382        -0.564442
 H         3.562211        -2.198938         0.290911
