19
Iteration:  3965charge 0 multiplicity 1
 C         0.200383         0.826753        -0.236400
 C         1.443395         0.071786         0.082923
 C         1.842751        -1.287807         0.982857
 C         2.627684        -0.268672         1.919877
 C         2.646159         0.583142         0.759855
 O         3.048464         1.905944         0.700310
 C         2.700533        -0.204157        -0.600890
 O         3.169695         0.614798        -1.736363
 C         2.737399        -1.667023        -0.123806
 H         0.296605         1.892368         0.013924
 H         0.065305         0.756700        -1.282732
 H        -0.848419         0.673718         0.233435
 H         1.192855        -1.943422         1.586336
 H         1.954177         0.031909         2.747225
 H         3.654800        -0.525324         2.218191
 H         4.020319         1.870529         0.802254
 H         2.921449        -0.014914        -2.334683
 H         2.440014        -2.287910        -0.867135
 H         3.752540        -2.119800         0.127817
