19
Iteration:  1318
 C         0.095459         0.680625        -0.313297
 C         1.328797         0.034500         0.095202
 C         1.858370        -1.400831         0.655801
 C         2.494195        -0.599207         1.877814
 C         2.547191         0.619315         0.872596
 O         2.995016         1.961993         1.141291
 C         2.748189        -0.054591        -0.593976
 O         3.331774         0.804608        -1.591282
 C         2.958884        -1.500659        -0.416892
 H        -0.623052         0.828569         0.492416
 H         0.330886         1.637835        -0.746875
 H        -0.331689         0.005702        -1.119565
 H         1.265073        -2.391334         0.673456
 H         2.050913        -0.261430         2.755592
 H         3.535847        -0.917275         2.113215
 H         3.819777         2.056055         0.730230
 H         2.917431         0.711349        -2.375088
 H         2.716873        -2.169194        -1.284178
 H         4.035840        -1.793673        -0.062297
