19
Iteration:  3778charge 0 multiplicity 1
 C         0.139187         0.743309        -0.374720
 C         1.449727         0.116535         0.231350
 C         1.781999        -1.252742         0.884269
 C         2.739279        -0.382443         1.888893
 C         2.704422         0.648135         0.772098
 O         3.085192         2.014730         0.940181
 C         2.708392        -0.162588        -0.557021
 O         3.240528         0.491037        -1.703962
 C         2.671124        -1.646702        -0.249199
 H        -0.444042        -0.168841        -0.597375
 H        -0.461148         1.385714         0.313023
 H         0.396699         1.200936        -1.414549
 H         0.896546        -1.823489         1.331441
 H         2.049438        -0.024826         2.679434
 H         3.709203        -0.752744         2.153130
 H         3.064478         2.330348         0.062733
 H         2.586190         0.682988        -2.345994
 H         2.321782        -2.202040        -1.091749
 H         3.672886        -2.169467         0.081751
