19
Iteration:  1954
 C        -0.007336         0.691617        -0.383578
 C         1.342786         0.095674         0.112982
 C         1.836730        -1.293846         0.917708
 C         2.777694        -0.389412         1.911337
 C         2.586682         0.620345         0.823493
 O         3.050190         1.884700         0.848501
 C         2.689507        -0.107816        -0.585792
 O         3.376615         0.660515        -1.513208
 C         2.738705        -1.601036        -0.361237
 H         0.090613         1.786511        -0.363500
 H        -0.234065         0.390354        -1.352955
 H        -0.776256         0.218925         0.327585
 H         1.302987        -2.220270         1.349105
 H         2.266419         0.148034         2.781768
 H         3.943728        -0.646869         2.201912
 H         3.659741         2.151134         0.032142
 H         2.792512         0.792955        -2.256701
 H         2.161707        -2.224381        -1.107434
 H         3.713174        -1.992296        -0.097115
