19
Iteration:  1455
 C         0.150765         0.603849        -0.317498
 C         1.435845         0.021607         0.047199
 C         1.775168        -1.236456         0.713651
 C         2.549788        -0.585459         1.803451
 C         2.617020         0.586105         0.790521
 O         2.974778         1.865738         1.132484
 C         2.856143         0.006139        -0.564762
 O         3.256263         0.784901        -1.574537
 C         2.890563        -1.483471        -0.312994
 H        -0.565678        -0.080424        -0.826975
 H        -0.453241         0.997845         0.611489
 H         0.358449         1.495526        -0.956921
 H         1.066943        -2.076560         0.838532
 H         1.917331        -0.152121         2.651858
 H         3.431056        -1.019760         2.196560
 H         3.384451         2.295218         0.354737
 H         2.770470         0.469547        -2.316409
 H         2.494809        -1.985839        -1.331811
 H         3.923187        -1.982869         0.040519
