19
Iteration:  1490charge 0 multiplicity 1
 C         0.000697         0.706640        -0.416728
 C         1.314057         0.063091         0.128045
 C         1.985283        -1.290118         0.767842
 C         2.665838        -0.521018         1.884390
 C         2.543723         0.613137         0.837548
 O         2.966209         1.909583         1.173388
 C         2.750863        -0.103772        -0.603032
 O         3.368476         0.676120        -1.569513
 C         2.875789        -1.525878        -0.472905
 H        -0.105272         0.498373        -1.487958
 H        -0.906167         0.561211         0.226493
 H         0.271826         1.865219        -0.333800
 H         1.225021        -2.088321         1.038704
 H         1.873280        -0.335179         2.668409
 H         3.678304        -0.779909         2.273795
 H         3.287059         2.206338         0.341099
 H         2.793600         0.957139        -2.181024
 H         2.267902        -2.181688        -1.341730
 H         3.953875        -2.066568        -0.261446
