19
Iteration:  4643
 C         0.083863         0.892468        -0.190086
 C         1.386561         0.192462         0.171899
 C         1.812514        -1.068345         1.084401
 C         2.718956        -0.207191         1.973844
 C         2.693162         0.686541         0.640652
 O         3.320511         1.987834         0.526690
 C         2.609116        -0.236172        -0.559022
 O         3.025799         0.094151        -1.847829
 C         2.741120        -1.675229         0.005421
 H        -0.272860         1.224929         0.766277
 H         0.267174         1.648095        -0.978418
 H        -0.508854         0.043016        -0.586342
 H         1.147000        -1.733624         1.621880
 H         2.164157         0.248686         2.844462
 H         3.751807        -0.603455         2.334384
 H         2.782168         2.537436        -0.040977
 H         3.981475         0.021971        -1.912184
 H         2.209166        -2.381611        -0.629239
 H         3.717539        -2.028662         0.266497
