19
Iteration:   302charge 0 multiplicity 1
 C         0.098713         0.574992        -0.577842
 C         1.364001         0.048781         0.045227
 C         1.950661        -1.372388         0.396491
 C         2.492192        -0.844942         1.740713
 C         2.429219         0.432453         1.030391
 O         2.866127         1.704738         1.424445
 C         2.809021         0.183086        -0.458186
 O         3.373359         1.143569        -1.311023
 C         3.087670        -1.308662        -0.590029
 H        -0.570064        -0.255100        -0.832567
 H        -0.375347         1.236868         0.154859
 H         0.231568         1.152602        -1.579881
 H         1.236546        -2.348658         0.204469
 H         1.801890        -1.002652         2.653690
 H         3.439175        -1.370680         2.083559
 H         3.094651         2.341189         0.649717
 H         3.082640         0.998174        -2.196742
 H         2.799012        -1.742834        -1.574882
 H         3.975736        -1.814780        -0.292339
