19
Iteration:  2911
 C         0.023552         0.633996        -0.198536
 C         1.427238         0.157141         0.178602
 C         1.872943        -1.161986         0.930616
 C         2.659919        -0.281868         1.939656
 C         2.590880         0.722755         0.813795
 O         3.233184         1.941176         0.780721
 C         2.670692        -0.153887        -0.611954
 O         3.306469         0.502058        -1.716983
 C         2.713370        -1.719441        -0.279662
 H        -0.388737         1.261843         0.569447
 H         0.041882         1.265092        -1.066897
 H        -0.754785        -0.130729        -0.250965
 H         0.997386        -1.865372         1.258042
 H         1.829596         0.064558         2.686813
 H         3.632347        -0.549230         2.415395
 H         3.342921         2.157675        -0.132665
 H         2.694774         0.189237        -2.526228
 H         2.069149        -2.318705        -0.982843
 H         3.738329        -2.210476        -0.167721
