19
Iteration:  1917
 C         0.108434         0.648607        -0.330610
 C         1.405902         0.100920         0.104468
 C         1.772645        -1.281155         0.833851
 C         2.645290        -0.463352         1.898857
 C         2.648655         0.632716         0.832075
 O         3.092357         1.966841         0.883231
 C         2.769022        -0.093794        -0.515174
 O         3.220894         0.680994        -1.571184
 C         2.815007        -1.561520        -0.331448
 H         0.057864         1.448463        -1.115951
 H        -0.557018        -0.171850        -0.773675
 H        -0.411520         1.049217         0.545651
 H         1.119333        -2.127975         1.047962
 H         2.066621        -0.099414         2.824265
 H         3.512019        -0.969111         2.258052
 H         3.395771         2.078521        -0.117392
 H         2.906219         0.257779        -2.435108
 H         2.477123        -2.291327        -1.151521
 H         3.771200        -2.004651         0.121039
