19
Iteration:  3618
 C         0.149915         0.679326        -0.355574
 C         1.401872         0.173837         0.113398
 C         1.726096        -1.227258         0.868532
 C         2.670369        -0.481104         1.832783
 C         2.713388         0.669082         0.749500
 O         3.048526         1.995814         1.023379
 C         2.655349        -0.097452        -0.551641
 O         3.241506         0.457645        -1.688362
 C         2.851363        -1.521109        -0.242063
 H        -0.178488         1.690082         0.119018
 H         0.055458         0.916341        -1.473977
 H        -0.645318        -0.051658        -0.130487
 H         0.905693        -1.876629         1.301768
 H         2.186480        -0.280826         2.799926
 H         3.599591        -1.051578         2.148919
 H         3.942835         2.242801         0.637866
 H         2.681036         0.386728        -2.541550
 H         2.349491        -2.209062        -1.085893
 H         3.768900        -2.048092        -0.018340
