19
Iteration:  3788
 C         0.141572         0.701363        -0.394915
 C         1.336158         0.153871         0.160653
 C         1.793352        -1.271133         0.997907
 C         2.711408        -0.392335         1.826009
 C         2.707877         0.633183         0.762209
 O         3.120099         1.984858         0.920403
 C         2.724119        -0.075930        -0.553867
 O         3.231828         0.513110        -1.671223
 C         2.732073        -1.673679        -0.228856
 H        -0.573859         0.047447        -0.922676
 H        -0.467846         1.423826         0.244874
 H         0.492337         1.490261        -1.184130
 H         1.155778        -2.121480         1.422939
 H         2.247733        -0.056214         2.765559
 H         3.635628        -0.761593         2.195960
 H         3.194401         2.395290         0.073420
 H         2.445468         0.503699        -2.267268
 H         2.106502        -2.173820        -0.990991
 H         3.706750        -2.306093        -0.055427
