19
Iteration:  2341
 C         0.028738         0.601780        -0.237737
 C         1.403467         0.174590         0.135867
 C         1.782841        -1.123928         0.899085
 C         2.697335        -0.312531         1.886464
 C         2.680450         0.664844         0.746659
 O         3.155652         2.001581         0.796166
 C         2.631700        -0.194434        -0.603323
 O         3.283652         0.494059        -1.654390
 C         2.759288        -1.678507        -0.222579
 H        -0.088118         1.553514         0.225191
 H        -0.194788         0.691474        -1.265257
 H        -0.793574        -0.055939         0.113712
 H         1.223323        -1.953678         1.426444
 H         2.066038        -0.052784         2.700422
 H         3.667986        -0.607355         2.298274
 H         3.789553         2.176102         0.099815
 H         2.699000         0.471164        -2.376537
 H         2.423742        -2.518683        -0.885350
 H         3.701998        -1.898470         0.229803
