19
Iteration:  2758
 C         0.076176         0.764474        -0.124497
 C         1.360400         0.116951         0.131733
 C         1.869095        -1.142487         0.946487
 C         2.647992        -0.261470         1.954485
 C         2.623208         0.673693         0.721628
 O         3.135488         1.960448         0.750198
 C         2.704901        -0.217522        -0.638791
 O         3.257515         0.367622        -1.724767
 C         2.769956        -1.599317        -0.228912
 H        -0.718641         0.103238        -0.457959
 H        -0.301629         1.334170         0.730392
 H         0.184934         1.648026        -0.859441
 H         1.326919        -2.078556         1.373052
 H         1.827774         0.021373         2.696570
 H         3.381987        -0.658181         2.566922
 H         3.700970         2.212096        -0.001020
 H         2.933009        -0.213669        -2.546999
 H         2.313234        -2.376473        -0.897351
 H         3.772317        -1.939902        -0.070003
