19
Iteration:  2352
 C         0.010395         0.640986        -0.259060
 C         1.380763         0.119697         0.170967
 C         1.792524        -1.192267         0.893241
 C         2.734381        -0.314148         1.868683
 C         2.737475         0.681651         0.727619
 O         3.118568         1.977667         0.744448
 C         2.731069        -0.152116        -0.548982
 O         3.231536         0.519521        -1.595154
 C         2.750890        -1.658569        -0.168401
 H        -0.386023         1.564373         0.086098
 H         0.083955         0.741818        -1.308322
 H        -0.690584        -0.170660         0.043344
 H         0.823488        -1.672222         1.334326
 H         2.154924         0.119041         2.667775
 H         3.673359        -0.866500         2.152251
 H         3.729757         2.111868        -0.086902
 H         2.794109         0.364917        -2.383695
 H         2.252887        -2.114759        -1.066864
 H         3.643953        -2.218696         0.060286
