19
Iteration:  3934
 C         0.110458         0.760034        -0.154853
 C         1.463202         0.076661         0.109135
 C         1.744750        -1.208250         0.939702
 C         2.616984        -0.375835         1.917626
 C         2.742570         0.641570         0.767281
 O         3.030585         2.043973         0.707731
 C         2.719463        -0.134081        -0.603810
 O         3.309822         0.410159        -1.630508
 C         2.745910        -1.637959        -0.260657
 H         0.359068         1.755183        -0.624652
 H        -0.532767         0.253617        -0.900785
 H        -0.626739         0.814390         0.758267
 H         1.045514        -1.914980         1.345460
 H         1.967714         0.059407         2.664343
 H         3.550148        -0.774836         2.240131
 H         3.845753         2.385275         0.259350
 H         2.562106         0.267401        -2.389989
 H         2.214434        -2.197925        -1.082712
 H         3.778896        -2.068061         0.011149
