19
Iteration:  4879charge 0 multiplicity 1
 C         0.150649         0.775966        -0.129173
 C         1.430733         0.190895         0.223430
 C         1.702184        -1.003500         1.304521
 C         2.845514        -0.112809         1.907363
 C         2.759958         0.712694         0.616292
 O         3.334802         2.035755         0.276890
 C         2.607922        -0.307892        -0.570837
 O         2.963349         0.066611        -1.818134
 C         2.571796        -1.690694         0.114912
 H        -0.528083         1.115941         0.697357
 H         0.346609         1.658293        -0.810592
 H        -0.422107         0.113845        -0.838787
 H         0.825313        -1.499925         1.615957
 H         2.363687         0.550755         2.748033
 H         3.722991        -0.733443         2.285344
 H         3.962326         1.913702        -0.511531
 H         3.901357         0.138068        -1.834636
 H         1.962346        -2.366090        -0.477296
 H         3.589170        -2.001045         0.261978
