19
Iteration:  1339
 C         0.043173         0.655476        -0.321525
 C         1.405443         0.043619         0.039069
 C         1.919301        -1.332399         0.735404
 C         2.512918        -0.527096         1.854881
 C         2.654992         0.577389         0.857454
 O         2.912901         1.843759         1.107225
 C         2.791849        -0.016595        -0.519835
 O         3.358677         0.804741        -1.551467
 C         2.884333        -1.476988        -0.500385
 H        -0.626614         0.342547         0.457216
 H         0.120219         1.710913        -0.282191
 H        -0.291981         0.430884        -1.398255
 H         1.242823        -2.141469         1.216703
 H         1.652926        -0.378582         2.540602
 H         3.455627        -0.850050         2.464438
 H         3.683582         2.127503         0.515843
 H         3.092764         0.554378        -2.508742
 H         2.258143        -1.956928        -1.216334
 H         3.850910        -1.976847        -0.320107
