19
Iteration:  3238charge 0 multiplicity 1
 C         0.052728         0.808091        -0.212889
 C         1.418577         0.128579         0.154323
 C         1.819969        -1.344030         0.877050
 C         2.683250        -0.478841         1.864792
 C         2.637167         0.672858         0.783631
 O         2.969434         1.994088         0.751509
 C         2.674210        -0.177595        -0.586987
 O         3.368937         0.634409        -1.590248
 C         2.780178        -1.696171        -0.237874
 H        -0.725427         0.553381         0.544622
 H         0.219948         1.905713        -0.063434
 H        -0.088711         0.569286        -1.248309
 H         1.173285        -2.130500         1.375851
 H         2.064125        -0.197232         2.716124
 H         3.671969        -0.689515         2.080086
 H         3.433494         2.228167        -0.081843
 H         3.153483         0.461968        -2.460295
 H         2.460933        -2.210688        -1.109589
 H         3.753973        -2.185440         0.055857
