19
Iteration:  3890charge 0 multiplicity 1
 C        -0.027494         0.685471        -0.221124
 C         1.336398         0.095740         0.105917
 C         1.785124        -1.192033         0.933014
 C         2.728345        -0.269460         1.847533
 C         2.719550         0.635143         0.642759
 O         3.137193         1.993654         0.909130
 C         2.647182        -0.153152        -0.609522
 O         3.446733         0.405783        -1.619973
 C         2.660904        -1.608998        -0.246469
 H        -0.265861         1.193879        -1.187610
 H        -0.815433        -0.020193         0.031206
 H        -0.253691         1.469830         0.637213
 H         1.200363        -1.965058         1.393848
 H         2.116944         0.190226         2.601704
 H         3.614917        -0.794903         2.115512
 H         3.377165         2.255845        -0.059417
 H         2.993822         0.556850        -2.575899
 H         2.117887        -2.268823        -0.984161
 H         3.707905        -2.010912         0.069866
