19
Iteration:  2698
 C        -0.012214         0.738730        -0.181612
 C         1.368044         0.112690         0.168443
 C         1.784305        -1.198020         1.021294
 C         2.730312        -0.210140         1.993916
 C         2.650659         0.700971         0.742434
 O         3.140242         1.939479         0.622311
 C         2.679006        -0.247818        -0.603880
 O         3.350807         0.413062        -1.666281
 C         2.715187        -1.638787        -0.251538
 H        -0.366042         0.711339        -1.223178
 H        -0.758658         0.199511         0.418601
 H         0.121782         1.761282        -0.002373
 H         1.288287        -1.880663         1.655963
 H         2.160936         0.046773         2.861067
 H         3.757371        -0.658662         2.135751
 H         3.616469         1.993732        -0.310259
 H         2.670173         0.511657        -2.375270
 H         2.221764        -2.213843        -0.984309
 H         3.778214        -1.893521        -0.052619
