19
Iteration:   785
 C         0.106989         0.550211        -0.429868
 C         1.412331         0.077829         0.062325
 C         1.816259        -1.371762         0.604805
 C         2.545966        -0.734869         1.862317
 C         2.628650         0.511973         0.898418
 O         2.860749         1.890407         1.235179
 C         2.868311         0.079133        -0.527094
 O         3.398026         0.988133        -1.454105
 C         2.902200        -1.419428        -0.518479
 H        -0.354993         1.395066         0.166612
 H         0.004729         0.773445        -1.515053
 H        -0.606044        -0.306474        -0.331320
 H         1.104020        -2.142348         0.661335
 H         1.692207        -0.628053         2.577422
 H         3.536583        -1.242822         2.091144
 H         3.340546         2.136726         0.457068
 H         2.777357         0.871830        -2.276356
 H         2.470104        -1.928387        -1.442793
 H         3.858528        -1.973666        -0.199935
