19
Iteration:  1249
 C         0.125584         0.625032        -0.411880
 C         1.367522        -0.016917         0.113954
 C         1.854479        -1.379354         0.654665
 C         2.661852        -0.533405         1.907780
 C         2.606619         0.575448         0.902501
 O         2.932165         1.922505         1.113145
 C         2.800317         0.033735        -0.513393
 O         3.355317         0.800878        -1.438997
 C         2.810109        -1.465825        -0.568637
 H        -0.073700         1.533714         0.146504
 H         0.230749         0.908215        -1.468883
 H        -0.809192        -0.043112        -0.385872
 H         1.225031        -2.269495         0.840529
 H         1.905954        -0.454138         2.730332
 H         3.675690        -0.923800         2.288890
 H         3.057442         2.362679         0.242942
 H         2.831448         0.551235        -2.303187
 H         2.247858        -1.922570        -1.376997
 H         3.722206        -2.059822        -0.408486
