19
Iteration:   590charge 0 multiplicity 1
 C         0.162934         0.660071        -0.386913
 C         1.357026        -0.065792        -0.012491
 C         1.929006        -1.473985         0.517280
 C         2.435451        -0.689503         1.822011
 C         2.512084         0.558270         0.821918
 O         2.857736         1.770835         1.335082
 C         2.819267         0.045700        -0.588916
 O         3.411847         1.030535        -1.357138
 C         3.004455        -1.382724        -0.545671
 H        -0.799670         0.065057        -0.269225
 H        -0.102767         1.572218         0.256748
 H         0.188102         0.844633        -1.414711
 H         1.399401        -2.340670         0.536289
 H         1.706670        -0.470999         2.626098
 H         3.463063        -0.954551         2.317261
 H         2.989488         2.556574         0.724541
 H         2.906022         1.107677        -2.103884
 H         2.573512        -1.819974        -1.520787
 H         4.048353        -1.890546        -0.213989
