19
Iteration:  2428charge 0 multiplicity 1
 C         0.127740         0.701243        -0.304897
 C         1.373450         0.086205         0.120104
 C         1.776141        -1.181505         0.985089
 C         2.687124        -0.374896         1.936261
 C         2.638908         0.678265         0.769192
 O         3.163124         1.998984         0.799953
 C         2.744907        -0.147108        -0.575734
 O         3.155509         0.486325        -1.812008
 C         2.793006        -1.628528        -0.097461
 H        -0.580394         0.630081         0.488572
 H         0.463239         1.695756        -0.428999
 H        -0.335727         0.248017        -1.179041
 H         0.958140        -1.969709         1.183076
 H         2.242695        -0.011416         2.908145
 H         3.862479        -0.592693         2.190706
 H         3.692366         2.030929        -0.022090
 H         2.292514         0.353063        -2.428799
 H         2.225035        -2.442128        -0.611356
 H         3.713977        -1.994776         0.189855
