19
Iteration:   592charge 0 multiplicity 1
 C         0.169664         0.651635        -0.378589
 C         1.377127        -0.070229         0.004539
 C         1.925781        -1.453360         0.491455
 C         2.432412        -0.677717         1.821119
 C         2.523649         0.543880         0.819330
 O         2.859099         1.781905         1.331985
 C         2.806873         0.049892        -0.593208
 O         3.412226         1.030531        -1.347531
 C         3.000542        -1.389631        -0.554231
 H        -0.751043         0.024112        -0.307449
 H        -0.133078         1.520979         0.304885
 H         0.138744         0.863311        -1.425242
 H         1.274617        -2.418049         0.603312
 H         1.663797        -0.513670         2.657356
 H         3.395539        -0.980811         2.342508
 H         2.986992         2.588356         0.688482
 H         2.919870         1.119037        -2.145394
 H         2.612057        -1.853557        -1.511936
 H         4.048469        -1.884925        -0.171294
