19
Iteration:  2825
 C         0.147234         0.712276        -0.347153
 C         1.377313         0.051218         0.275621
 C         1.793909        -1.223131         1.029915
 C         2.777912        -0.335464         1.917783
 C         2.723151         0.701481         0.720794
 O         3.131730         2.055323         0.698306
 C         2.731622        -0.218659        -0.510276
 O         3.180020         0.512287        -1.651546
 C         2.621839        -1.673124        -0.241401
 H        -0.750648         0.148284        -0.051946
 H         0.138301         1.774695        -0.129044
 H         0.228213         0.760704        -1.487228
 H         1.266419        -2.179640         1.295136
 H         2.201463        -0.007335         2.805084
 H         3.651433        -0.739634         2.348822
 H         3.443375         2.149791        -0.293861
 H         2.620576         0.713797        -2.356629
 H         2.033324        -2.297963        -0.955417
 H         3.433337        -2.263006         0.029876
