19
Iteration:   519charge 0 multiplicity 1
 C         0.119633         0.618632        -0.518398
 C         1.451299         0.061601         0.007816
 C         1.943968        -1.435065         0.527053
 C         2.580400        -0.744195         1.883117
 C         2.553703         0.498033         0.995016
 O         2.699049         1.824352         1.347547
 C         2.918047         0.092995        -0.550587
 O         3.366660         1.081831        -1.404468
 C         2.910683        -1.445561        -0.655063
 H        -0.480544         1.204425         0.118928
 H         0.298889         1.304102        -1.321989
 H        -0.448179        -0.321398        -0.937183
 H         1.239559        -2.402094         0.568428
 H         1.761507        -0.594616         2.639671
 H         3.474366        -1.093803         2.346157
 H         3.692388         1.814014         1.628887
 H         2.922744         0.906691        -2.171166
 H         2.281495        -1.720982        -1.510517
 H         3.797612        -2.023943        -0.605122
