19
Iteration:  1723
 C         0.128973         0.597406        -0.281679
 C         1.413596        -0.009720         0.112131
 C         1.858273        -1.366657         0.873738
 C         2.562655        -0.382343         1.904416
 C         2.602532         0.646607         0.749444
 O         3.044517         1.924692         1.067481
 C         2.797616        -0.042110        -0.629038
 O         3.346273         0.700611        -1.651588
 C         2.768616        -1.567083        -0.397315
 H        -0.585718         0.474908         0.583680
 H         0.276366         1.654371        -0.343913
 H        -0.321497         0.370268        -1.344335
 H         1.032440        -2.086276         0.954383
 H         1.758446        -0.088832         2.492455
 H         3.431668        -0.609167         2.479367
 H         3.232500         2.431399         0.338742
 H         2.714684         0.783143        -2.292406
 H         2.207938        -2.111743        -1.192712
 H         3.749550        -2.023834        -0.209902
