19
Iteration:   759
 C         0.087767         0.674478        -0.433224
 C         1.352683         0.015379         0.024540
 C         1.880792        -1.372103         0.535995
 C         2.548252        -0.677213         1.776265
 C         2.528245         0.527466         0.873406
 O         2.909724         1.854443         1.288464
 C         2.794323         0.028106        -0.553059
 O         3.293787         0.951747        -1.439073
 C         3.064004        -1.462209        -0.445253
 H         0.061663         1.666277        -0.052167
 H         0.040543         0.623579        -1.488051
 H        -0.844231         0.237131        -0.016479
 H         1.184687        -2.276110         0.633081
 H         1.879786        -0.701098         2.642999
 H         3.451756        -1.052211         2.212619
 H         3.582813         2.094598         0.693137
 H         2.665262         1.009825        -2.198743
 H         2.932474        -2.143315        -1.305142
 H         4.039126        -1.841293         0.052925
