19
Iteration:  3555charge 0 multiplicity 1
 C         0.155274         0.742858        -0.383651
 C         1.419800         0.121061         0.141195
 C         1.782885        -1.241633         0.819259
 C         2.675461        -0.430512         1.926476
 C         2.698325         0.601410         0.835808
 O         3.012287         1.952423         0.859851
 C         2.683848        -0.147866        -0.577688
 O         3.218312         0.649020        -1.595021
 C         2.808932        -1.699842        -0.274895
 H         0.355770         1.858420        -0.329454
 H        -0.050657         0.276143        -1.391701
 H        -0.649135         0.585739         0.326268
 H         1.068772        -1.872965         1.212030
 H         2.013679        -0.268670         2.800124
 H         3.632716        -0.687684         2.416590
 H         3.796283         2.282242         0.393496
 H         2.615061         0.446589        -2.347029
 H         2.395125        -2.180036        -1.165873
 H         3.762106        -2.093470         0.104091
