19
Iteration:  3710
 C         0.056702         0.785224        -0.202209
 C         1.369579         0.115598         0.045139
 C         1.808598        -1.260148         0.914669
 C         2.671221        -0.403346         1.904599
 C         2.544197         0.650913         0.780705
 O         3.108365         1.893321         0.771244
 C         2.651318        -0.130516        -0.688682
 O         3.337197         0.567705        -1.578908
 C         2.832842        -1.547940        -0.206426
 H        -0.638798         0.313004         0.602751
 H        -0.043513         1.933934         0.056448
 H        -0.507558         0.582623        -1.186979
 H         1.021270        -2.022363         1.124318
 H         1.971386        -0.305460         2.799866
 H         3.565928        -0.925815         2.244235
 H         3.911468         2.130597         0.165636
 H         3.348512         0.116970        -2.541912
 H         2.464920        -2.403355        -0.825689
 H         3.890403        -1.994477         0.000254
