19
Iteration:   535charge 0 multiplicity 1
 C         0.249439         0.569821        -0.500889
 C         1.440131        -0.011498         0.123629
 C         1.816689        -1.416676         0.520517
 C         2.533149        -0.795612         1.707418
 C         2.597765         0.551603         0.937772
 O         2.699549         1.843258         1.346032
 C         2.842492         0.106224        -0.497549
 O         3.355984         1.064149        -1.417063
 C         2.935603        -1.395481        -0.579772
 H        -0.462749         0.798018         0.367330
 H         0.520959         1.497814        -1.101240
 H        -0.267416        -0.057856        -1.154338
 H         1.142004        -2.106446         0.815416
 H         1.854404        -0.717762         2.555246
 H         3.542971        -1.286383         2.018430
 H         3.599802         2.195528         1.426044
 H         2.919418         0.904419        -2.263624
 H         2.623745        -1.738473        -1.637695
 H         3.972553        -1.982397        -0.309693
