19
Iteration:   771charge 0 multiplicity 1
 C         0.021926         0.642552        -0.442105
 C         1.442286         0.110090         0.055244
 C         1.821801        -1.406686         0.564260
 C         2.519006        -0.761999         1.803474
 C         2.605502         0.567018         0.955202
 O         2.877776         1.862986         1.241871
 C         2.816510         0.037259        -0.536090
 O         3.325215         0.976965        -1.469899
 C         3.054954        -1.512491        -0.465639
 H        -0.212071         1.599958        -0.112935
 H        -0.003379         0.776349        -1.455424
 H        -0.746597        -0.143919        -0.180455
 H         1.118684        -2.259977         0.833922
 H         1.914745        -0.498119         2.614489
 H         3.413043        -1.243949         2.029053
 H         3.518166         2.299472         0.556344
 H         2.797783         0.993154        -2.206709
 H         2.740953        -1.918213        -1.454736
 H         4.151941        -1.830212        -0.075505
