19
Iteration:  2442charge 0 multiplicity 1
 C         0.110247         0.729300        -0.231538
 C         1.451550         0.149110         0.159629
 C         1.795858        -1.182182         0.936014
 C         2.606496        -0.278500         1.996103
 C         2.681735         0.692289         0.810751
 O         3.155298         1.974080         0.800616
 C         2.700334        -0.198457        -0.627882
 O         3.138985         0.407294        -1.817942
 C         2.849486        -1.636314        -0.194545
 H        -0.740731         0.391007         0.377405
 H        -0.046392         1.800863        -0.204001
 H        -0.174989         0.311081        -1.239983
 H         1.078509        -1.861403         1.348718
 H         2.012367         0.089823         2.789561
 H         3.498728        -0.947227         2.288656
 H         3.772747         2.107966         0.002066
 H         2.465342         0.306328        -2.446672
 H         2.556928        -2.321029        -0.964165
 H         3.849733        -1.967425         0.231776
