19
Iteration:  1672
 C         0.123003         0.650489        -0.393582
 C         1.348879         0.023571         0.122999
 C         1.808352        -1.278296         0.813337
 C         2.684028        -0.571655         1.767580
 C         2.594634         0.638960         0.890467
 O         2.987768         1.920213         0.922731
 C         2.720238         0.022797        -0.553260
 O         3.272833         0.771094        -1.526553
 C         2.863739        -1.561147        -0.267786
 H        -0.268564         1.429990         0.270579
 H         0.284175         1.021458        -1.470935
 H        -0.684079        -0.023175        -0.502312
 H         1.103480        -2.128314         1.141178
 H         2.256295        -0.389818         2.849821
 H         3.640362        -1.212686         1.776762
 H         3.929038         2.015167         0.511722
 H         2.880527         0.707433        -2.462511
 H         2.477944        -2.178416        -1.059314
 H         3.817286        -2.074440         0.150634
