19
Iteration:  2493
 C         0.052186         0.732028        -0.156437
 C         1.405987         0.146759         0.109092
 C         1.808231        -1.154200         0.939683
 C         2.767713        -0.323488         1.891250
 C         2.633334         0.686461         0.737814
 O         3.055253         1.964068         0.705786
 C         2.719268        -0.213549        -0.625312
 O         3.348393         0.470075        -1.683480
 C         2.700252        -1.706002        -0.121945
 H        -0.774205         0.117349         0.197506
 H        -0.073865         1.579703         0.505269
 H        -0.322211         0.931444        -1.130559
 H         0.952069        -1.724614         1.418974
 H         2.109946         0.080909         2.694052
 H         3.718847        -0.621452         2.129059
 H         3.462231         2.129025        -0.100046
 H         2.857018         0.265949        -2.477508
 H         2.191633        -2.451346        -0.824959
 H         3.710546        -1.956792         0.028865
