19
Iteration:  2528charge 0 multiplicity 1
 C         0.039269         0.749616        -0.209399
 C         1.347458         0.049751         0.247053
 C         1.818107        -1.243901         0.994033
 C         2.795207        -0.289436         1.883560
 C         2.583534         0.687810         0.760744
 O         3.086985         1.980296         0.548870
 C         2.691566        -0.166930        -0.516582
 O         3.383898         0.497059        -1.604659
 C         2.660215        -1.629223        -0.235296
 H        -0.703264         0.030488        -0.307080
 H        -0.229283         1.428257         0.534966
 H         0.307193         1.355398        -1.054106
 H         1.142806        -1.901559         1.510033
 H         2.290125        -0.094364         2.789913
 H         3.667203        -0.827417         2.217150
 H         3.482273         1.991616        -0.326501
 H         2.936500         0.123802        -2.423461
 H         2.053199        -2.249367        -0.913385
 H         3.624611        -2.069606        -0.134257
