19
Iteration:  2520charge 0 multiplicity 1
 C         0.060366         0.728026        -0.182841
 C         1.304205         0.046121         0.262066
 C         1.733203        -1.205190         1.053115
 C         2.765111        -0.391911         1.845568
 C         2.681940         0.692443         0.709463
 O         3.069707         2.010305         0.555509
 C         2.684802        -0.159240        -0.550834
 O         3.388810         0.480593        -1.572514
 C         2.718047        -1.645163        -0.223150
 H        -0.840171         0.092684        -0.315472
 H        -0.167797         1.556510         0.520291
 H         0.076131         1.257072        -1.175985
 H         0.991182        -1.783083         1.559250
 H         2.289944         0.109589         2.688013
 H         3.899694        -0.725890         2.104887
 H         3.366794         2.125961        -0.306882
 H         3.015951         0.217104        -2.407159
 H         2.217053        -2.127163        -1.012811
 H         3.772093        -2.047053        -0.248697
