19
Iteration:    47
 C         0.115918         0.520025        -0.558063
 C         1.411372        -0.006059        -0.032073
 C         1.976750        -1.505102         0.342079
 C         2.401108        -0.872436         1.729230
 C         2.465635         0.440164         1.016084
 O         2.769824         1.652363         1.587872
 C         2.807465         0.182245        -0.485825
 O         3.354461         1.313673        -1.205422
 C         3.116455        -1.234940        -0.769130
 H        -0.622387        -0.110493        -0.880546
 H        -0.324053         1.301159         0.133453
 H         0.381076         1.187806        -1.460910
 H         1.475990        -2.331073         0.371507
 H         1.723569        -0.975820         2.454921
 H         3.363549        -1.189881         2.139124
 H         3.566700         1.946503         1.044453
 H         3.477213         0.853201        -2.129992
 H         2.578630        -1.412518        -1.714700
 H         4.170757        -1.686326        -0.853158
