19
Iteration:   839charge 0 multiplicity 1
 C         0.000991         0.548639        -0.432404
 C         1.337125         0.030502         0.039164
 C         1.814509        -1.346982         0.629178
 C         2.641855        -0.654071         1.733110
 C         2.556184         0.548996         0.884118
 O         2.899266         1.835371         1.207201
 C         2.743092         0.074895        -0.552955
 O         3.471539         0.968465        -1.357825
 C         2.955220        -1.460236        -0.463080
 H        -0.716886         0.751180         0.394420
 H         0.141345         1.587003        -0.700581
 H        -0.523043         0.017646        -1.241323
 H         1.062093        -2.072877         0.812573
 H         2.154127        -0.658676         2.742942
 H         3.609085        -1.136742         1.984316
 H         3.337094         2.025492         0.360073
 H         3.210092         0.853789        -2.352491
 H         2.584224        -1.877823        -1.458990
 H         3.947922        -1.927643        -0.063126
