19
Iteration:    20charge 0 multiplicity 1
 C         0.066580         0.586528        -0.564309
 C         1.397459         0.039058        -0.066916
 C         1.816091        -1.417228         0.293661
 C         2.577270        -0.973542         1.588079
 C         2.583186         0.433070         0.915124
 O         2.689587         1.657752         1.559941
 C         2.842161         0.178526        -0.520480
 O         3.330388         1.361961        -1.108581
 C         3.159075        -1.348389        -0.589589
 H        -0.854337         0.005809        -0.150172
 H        -0.165639         1.559080        -0.179102
 H         0.018657         0.554301        -1.628242
 H         1.070264        -2.369476         0.334084
 H         2.012712        -0.967315         2.632021
 H         3.569524        -1.452529         1.790736
 H         3.482956         2.099881         1.154670
 H         3.495996         1.109304        -2.057443
 H         3.063723        -1.807070        -1.574545
 H         3.999846        -1.693151        -0.086555
