19
Iteration:   194
 C         0.043845         0.621554        -0.354690
 C         1.371715         0.015459        -0.078412
 C         1.957151        -1.453167         0.372041
 C         2.499436        -0.812467         1.683825
 C         2.414430         0.493736         0.874194
 O         2.620881         1.678137         1.537711
 C         2.845052         0.169251        -0.572273
 O         3.567373         1.158702        -1.273927
 C         3.114330        -1.338360        -0.634949
 H         0.050126         1.622087         0.218247
 H        -0.129840         0.939186        -1.412810
 H        -0.825723        -0.023604        -0.243314
 H         1.335112        -2.513230         0.482469
 H         1.808482        -0.980056         2.571593
 H         3.483778        -1.086713         2.002701
 H         3.434203         1.969836         0.943766
 H         3.248301         1.201109        -2.178004
 H         2.749200        -1.861621        -1.554210
 H         4.202808        -1.684500        -0.407895
