19
Iteration:  4629
 C         0.149373         0.840628        -0.155408
 C         1.404344         0.090452         0.223474
 C         1.806532        -1.099459         1.160233
 C         2.709410        -0.100348         1.922475
 C         2.728402         0.704669         0.727694
 O         3.255466         1.947628         0.521308
 C         2.736940        -0.272296        -0.579093
 O         3.012400         0.172806        -1.883082
 C         2.671637        -1.665839        -0.050814
 H        -0.108310         1.771258         0.356673
 H         0.485307         1.461933        -1.129065
 H        -0.803186         0.333845        -0.383152
 H         1.020695        -1.757683         1.623251
 H         2.059596         0.361805         2.582911
 H         3.584832        -0.578580         2.366848
 H         2.653928         2.478863        -0.039097
 H         4.000393        -0.121045        -2.064664
 H         2.042859        -2.388601        -0.726487
 H         3.625207        -2.161898         0.296887
