19
Iteration:   622charge 0 multiplicity 1
 C        -0.001502         0.571729        -0.336049
 C         1.477491         0.076784        -0.020236
 C         1.823451        -1.363606         0.488343
 C         2.436163        -0.788523         1.823351
 C         2.557076         0.489024         0.860076
 O         2.837423         1.848803         1.224318
 C         2.939840         0.069602        -0.523445
 O         3.431227         1.098150        -1.358156
 C         3.008710        -1.455719        -0.493123
 H        -0.517469        -0.335603        -0.773692
 H        -0.531317         0.945995         0.587297
 H        -0.133734         1.344454        -1.073556
 H         1.174738        -2.104585         0.486557
 H         1.813293        -0.711805         2.706503
 H         3.383232        -1.394113         2.111256
 H         3.384213         2.300267         0.577244
 H         3.101505         0.887961        -2.345441
 H         2.556078        -1.890929        -1.415835
 H         3.906134        -2.054594        -0.193642
