19
Iteration:  1545charge 0 multiplicity 1
 C         0.117987         0.692227        -0.315716
 C         1.440007         0.129535         0.068155
 C         1.862403        -1.346444         0.756508
 C         2.580532        -0.545811         1.902686
 C         2.644332         0.544869         0.836609
 O         2.924180         1.953603         0.947966
 C         2.744548        -0.052603        -0.542677
 O         3.299233         0.825237        -1.480469
 C         2.854095        -1.623785        -0.454094
 H        -0.003950         0.942233        -1.390001
 H        -0.591619        -0.126920        -0.118180
 H        -0.305946         1.488950         0.413257
 H         1.218425        -2.204521         1.041487
 H         1.886387        -0.198885         2.657413
 H         3.495145        -0.999663         2.275458
 H         3.802763         2.114980         0.568571
 H         3.121100         0.548572        -2.361182
 H         2.354349        -2.137094        -1.406804
 H         3.846214        -2.139760        -0.077827
