19
Iteration:  4266
 C         0.067683         0.716361        -0.253593
 C         1.370831         0.133092         0.142369
 C         1.780133        -1.161860         1.011740
 C         2.758136        -0.231604         1.915486
 C         2.632521         0.687343         0.728865
 O         3.276777         2.005681         0.682396
 C         2.601074        -0.215571        -0.578265
 O         3.221919         0.302596        -1.638335
 C         2.705371        -1.623214        -0.149659
 H         0.197643         1.793924        -0.278449
 H        -0.061560         0.344869        -1.346569
 H        -0.868831         0.625207         0.281309
 H         1.125341        -1.854322         1.507936
 H         2.178339         0.173874         2.756878
 H         3.758081        -0.744342         2.042009
 H         3.416555         2.154369        -0.304338
 H         2.648781         0.711003        -2.414712
 H         2.239759        -2.472666        -0.782049
 H         3.729415        -2.010823         0.123312
