19
Iteration:  1491charge 0 multiplicity 1
 C         0.003655         0.703508        -0.412932
 C         1.319640         0.060279         0.123626
 C         1.980179        -1.295138         0.766191
 C         2.664225        -0.510091         1.879539
 C         2.548690         0.607346         0.836370
 O         2.960750         1.904948         1.169449
 C         2.746000        -0.100635        -0.591545
 O         3.369145         0.673977        -1.563652
 C         2.878567        -1.520529        -0.469928
 H        -0.083331         0.507573        -1.482838
 H        -0.884123         0.559795         0.186245
 H         0.252784         1.865089        -0.303220
 H         1.209787        -2.059223         1.031500
 H         1.883669        -0.358798         2.640079
 H         3.717664        -0.800772         2.240866
 H         3.318246         2.235936         0.317008
 H         2.779024         0.980915        -2.214863
 H         2.245530        -2.151742        -1.294269
 H         3.920128        -2.066257        -0.281876
