19
Iteration:  2696charge 0 multiplicity 1
 C        -0.001433         0.733839        -0.188630
 C         1.336865         0.105045         0.184708
 C         1.794338        -1.198685         1.016390
 C         2.742763        -0.223945         1.994766
 C         2.634509         0.687386         0.741200
 O         3.144459         1.945091         0.612346
 C         2.692784        -0.224627        -0.594950
 O         3.355559         0.409827        -1.659955
 C         2.707732        -1.625726        -0.256458
 H        -0.347778         0.704515        -1.250050
 H        -0.794646         0.197300         0.366927
 H         0.133330         1.831794         0.007404
 H         1.292816        -1.879611         1.708429
 H         2.157740         0.116627         2.849467
 H         3.808173        -0.679787         2.185554
 H         3.607287         1.961070        -0.312961
 H         2.627687         0.515346        -2.415183
 H         2.147671        -2.269976        -1.019348
 H         3.807871        -1.905679        -0.034049
