19
Iteration:   814charge 0 multiplicity 1
 C         0.033929         0.569057        -0.430004
 C         1.368836         0.067036         0.043391
 C         1.914654        -1.452161         0.694253
 C         2.589932        -0.570621         1.800332
 C         2.533020         0.564676         0.839759
 O         2.899759         1.896996         1.297046
 C         2.793425         0.006108        -0.572738
 O         3.486978         0.964839        -1.326675
 C         2.863317        -1.520740        -0.669032
 H        -0.530420         1.078328         0.276260
 H        -0.012193         1.187005        -1.273812
 H        -0.501743        -0.371965        -0.723980
 H         1.168313        -2.244603         0.976870
 H         1.928526        -0.499098         2.585574
 H         3.547228        -0.830382         2.034691
 H         3.217425         2.217134         0.477168
 H         3.096288         0.941554        -2.178192
 H         2.229568        -1.873271        -1.449091
 H         3.836543        -2.029920        -0.605272
