19
Iteration:   182charge 0 multiplicity 1
 C         0.088461         0.612819        -0.361254
 C         1.422661        -0.017555        -0.148935
 C         1.904249        -1.421693         0.332938
 C         2.535492        -0.819361         1.654327
 C         2.492259         0.440809         0.922239
 O         2.623496         1.730674         1.523439
 C         2.814493         0.143327        -0.620933
 O         3.501628         1.236355        -1.218374
 C         3.078674        -1.413955        -0.592642
 H        -0.019943         1.645811         0.062658
 H        -0.125263         0.592501        -1.440376
 H        -0.625569         0.042046         0.278502
 H         1.049851        -2.306946         0.344873
 H         1.775108        -0.808249         2.506434
 H         3.468993        -1.251434         1.958049
 H         3.400175         2.233860         1.234997
 H         3.408248         1.059950        -2.245686
 H         2.969782        -1.825460        -1.624542
 H         3.980790        -1.821162        -0.068395
