19
Iteration:   710charge 0 multiplicity 1
 C         0.193538         0.643713        -0.393787
 C         1.484653         0.084046         0.039720
 C         1.858923        -1.443586         0.507072
 C         2.548034        -0.726229         1.775345
 C         2.593502         0.506393         0.918981
 O         2.755887         1.904670         1.258298
 C         2.839525         0.051565        -0.520110
 O         3.330756         0.980602        -1.384384
 C         2.950558        -1.508556        -0.537861
 H         0.255839         1.509938        -1.130444
 H        -0.549685        -0.142626        -0.766556
 H        -0.224471         1.191798         0.444579
 H         1.093847        -2.074902         0.758133
 H         1.838932        -0.676658         2.633603
 H         3.427984        -1.151344         2.374112
 H         2.905495         2.300095         0.324843
 H         2.947989         0.818313        -2.300481
 H         2.782510        -1.992586        -1.489929
 H         3.836352        -1.911867        -0.190307
