19
Iteration:  4510
 C         0.116746         0.605626        -0.182249
 C         1.431585         0.164511         0.155622
 C         1.653285        -1.031298         1.069586
 C         2.669965        -0.155764         1.966403
 C         2.778603         0.731649         0.683684
 O         3.431624         1.904737         0.494402
 C         2.734650        -0.277512        -0.555455
 O         3.062730         0.340352        -1.807148
 C         2.623948        -1.666097        -0.053032
 H        -0.198077         0.656719        -1.208582
 H        -0.675406        -0.055276         0.238915
 H        -0.156830         1.534130         0.312253
 H         0.750438        -1.665458         1.275307
 H         2.091241         0.420123         2.685980
 H         3.551340        -0.761101         2.542029
 H         2.665511         2.476015         0.337177
 H         4.018541         0.824889        -1.710170
 H         1.981828        -2.189751        -0.801820
 H         3.295272        -2.309388         0.389049
