19
Iteration:   666
 C        -0.036815         0.654389        -0.387889
 C         1.355293         0.020818         0.033099
 C         1.925503        -1.391424         0.567007
 C         2.631849        -0.636518         1.766473
 C         2.519489         0.534717         0.901099
 O         2.776009         1.821417         1.301054
 C         2.721418         0.034270        -0.596556
 O         3.586723         0.964914        -1.345323
 C         2.939861        -1.466949        -0.605843
 H        -0.256423         0.579927        -1.503239
 H        -0.783541        -0.061138         0.088433
 H        -0.331001         1.662883        -0.181046
 H         1.496420        -2.271247         0.716128
 H         1.896479        -0.675710         2.570713
 H         3.527887        -0.877006         2.432504
 H         3.568438         2.125690         0.758789
 H         3.272241         1.097094        -2.349352
 H         2.564476        -1.978680        -1.498969
 H         3.888399        -1.852677        -0.340870
