19
Iteration:   419
 C         0.057553         0.645128        -0.363713
 C         1.408219        -0.106396        -0.138616
 C         1.915686        -1.417377         0.513160
 C         2.507348        -0.710049         1.746239
 C         2.553252         0.485940         0.835226
 O         2.698194         1.717362         1.362201
 C         2.928830         0.110845        -0.568489
 O         3.448413         1.173341        -1.223885
 C         3.005163        -1.440105        -0.613790
 H         0.190223         1.464971        -1.048169
 H        -0.769795         0.014070        -0.644762
 H        -0.341856         1.164722         0.637073
 H         1.291122        -2.410871         0.661582
 H         1.627084        -0.573920         2.458427
 H         3.300570        -1.118096         2.370583
 H         3.174724         2.269181         0.643239
 H         3.351674         1.243609        -2.124740
 H         2.583261        -1.886635        -1.574989
 H         4.060358        -1.914062        -0.397363
