19
Iteration:    62
 C         0.131423         0.580225        -0.555630
 C         1.381870        -0.068290         0.000915
 C         1.994294        -1.465058         0.341111
 C         2.437750        -0.893724         1.724902
 C         2.514481         0.467752         0.984290
 O         2.768229         1.683504         1.600464
 C         2.902668         0.205285        -0.445139
 O         3.352816         1.226551        -1.209029
 C         3.046926        -1.201498        -0.821217
 H        -0.469063        -0.322808        -1.108750
 H        -0.642304         0.711887         0.248548
 H         0.379770         1.364134        -1.323125
 H         1.321909        -2.510026         0.240370
 H         1.403699        -0.756729         2.290412
 H         3.175128        -1.357569         2.387345
 H         3.254620         2.206421         1.029806
 H         3.308443         1.058814        -2.097768
 H         2.562140        -1.447526        -1.840109
 H         4.181228        -1.676505        -0.709417
