19
Iteration:  2146charge 0 multiplicity 1
 C         0.052379         0.630023        -0.305468
 C         1.337412         0.099911         0.170383
 C         1.761331        -1.273904         0.914144
 C         2.606102        -0.368487         1.813205
 C         2.648615         0.662009         0.745204
 O         3.183478         1.944689         0.890273
 C         2.728859        -0.062243        -0.576266
 O         3.255185         0.568040        -1.658425
 C         2.814057        -1.535094        -0.207176
 H        -0.654119        -0.093226        -0.669369
 H        -0.513328         0.856322         0.645457
 H         0.142767         1.400046        -0.997527
 H         1.302668        -2.252490         1.240789
 H         2.100659         0.016646         2.754186
 H         3.647635        -0.815873         2.165435
 H         3.657996         2.095066        -0.000496
 H         2.949131         0.038329        -2.386958
 H         2.454112        -2.080147        -1.037843
 H         3.835610        -1.873722         0.023802
