19
Iteration:  4143
 C         0.148292         0.789307        -0.175936
 C         1.440454         0.103569         0.077096
 C         1.730168        -1.141857         1.008234
 C         2.711384        -0.351466         1.835239
 C         2.694592         0.700512         0.717498
 O         3.105313         2.011390         0.745102
 C         2.748204        -0.190042        -0.544675
 O         3.218851         0.441728        -1.739399
 C         2.661298        -1.697108        -0.091690
 H        -0.369042         0.124307        -0.931621
 H        -0.565524         0.736579         0.628263
 H         0.281489         1.809224        -0.655442
 H         1.057485        -1.876723         1.418865
 H         2.030685         0.098027         2.635359
 H         3.592880        -0.768669         2.419802
 H         3.325942         2.203252        -0.215024
 H         3.519943        -0.349905        -2.273200
 H         2.035373        -2.131868        -0.938841
 H         3.619339        -2.330349         0.000897
