19
Iteration:  1182charge 0 multiplicity 1
 C         0.026200         0.639835        -0.293137
 C         1.391635         0.066462         0.015617
 C         1.950593        -1.368436         0.633201
 C         2.431550        -0.570259         1.901586
 C         2.570905         0.553372         0.895396
 O         2.982949         1.849815         1.108701
 C         2.873428        -0.012135        -0.542900
 O         3.379274         0.883494        -1.543213
 C         2.901566        -1.496796        -0.464316
 H        -0.050896         1.736938        -0.404386
 H        -0.357997         0.256918        -1.273257
 H        -0.655566         0.389832         0.533635
 H         1.473813        -2.268016         0.857922
 H         1.497414        -0.507579         2.545340
 H         3.268533        -0.865490         2.565178
 H         3.563815         2.080703         0.377190
 H         2.766226         0.848676        -2.221299
 H         2.391083        -1.902594        -1.344114
 H         3.891164        -1.926236        -0.326086
