19
Iteration:  1539
 C         0.099234         0.684544        -0.306941
 C         1.463070         0.130352         0.068276
 C         1.848997        -1.291316         0.715472
 C         2.567712        -0.610248         1.914691
 C         2.693632         0.603948         0.867097
 O         2.892657         1.942304         0.936806
 C         2.742239        -0.007189        -0.543060
 O         3.301324         0.841199        -1.483539
 C         2.852007        -1.714887        -0.404836
 H         0.143123         0.843203        -1.385252
 H        -0.627681        -0.116458        -0.091970
 H        -0.282369         1.496343         0.252603
 H         1.203125        -2.108843         0.983520
 H         1.935750        -0.236928         2.748029
 H         3.606196        -1.077082         2.121029
 H         3.823777         2.136186         0.473113
 H         3.040069         0.535320        -2.497311
 H         2.388162        -2.088627        -1.235336
 H         3.785985        -2.136091        -0.246122
