19
Iteration:  2063
 C         0.113204         0.784343        -0.241980
 C         1.472171         0.094580         0.103256
 C         1.838998        -1.278473         0.934291
 C         2.651690        -0.476457         1.894107
 C         2.643650         0.632487         0.807447
 O         2.990713         1.964778         0.829596
 C         2.719413        -0.131835        -0.613122
 O         3.257314         0.573706        -1.644613
 C         2.823751        -1.572715        -0.230808
 H        -0.643023         0.121712         0.257567
 H         0.063314         1.830455        -0.190254
 H        -0.295623         0.638082        -1.316730
 H         1.028848        -1.895340         1.250241
 H         1.969375        -0.213056         2.726926
 H         3.534235        -0.804703         2.266280
 H         3.497694         2.104498        -0.091386
 H         2.750632         0.492962        -2.383762
 H         2.484243        -2.150301        -1.197458
 H         3.816391        -2.047149        -0.021723
