19
Iteration:  3683
 C         0.051425         0.757054        -0.152427
 C         1.350259         0.015475         0.189752
 C         1.691329        -1.288462         0.870913
 C         2.604354        -0.381061         1.870720
 C         2.680290         0.630147         0.730111
 O         3.082840         1.930076         0.685429
 C         2.783804        -0.101955        -0.549458
 O         3.375357         0.660188        -1.536308
 C         2.825855        -1.636376        -0.262570
 H        -0.611500         0.956748         0.686692
 H         0.256411         1.706683        -0.580401
 H        -0.489285         0.163753        -0.860660
 H         0.850870        -1.953755         1.150115
 H         1.873570        -0.076179         2.616466
 H         3.517299        -0.963307         2.150578
 H         3.560982         2.209536        -0.182986
 H         3.088064         0.279045        -2.472487
 H         2.389936        -2.218442        -1.133543
 H         3.717224        -2.168341        -0.027326
