19
Iteration:  4045
 C         0.096393         0.670782        -0.323638
 C         1.417353         0.144470         0.162095
 C         1.763417        -1.163589         0.987318
 C         2.737171        -0.297296         1.855538
 C         2.734101         0.666096         0.660376
 O         3.211689         2.017230         0.900385
 C         2.706754        -0.176303        -0.599630
 O         3.267222         0.448101        -1.695535
 C         2.621502        -1.737243        -0.210243
 H        -0.648214         0.479292         0.535141
 H        -0.191999         1.716337        -0.631130
 H        -0.248197        -0.111869        -1.114337
 H         1.019581        -1.676088         1.585110
 H         2.139776         0.259979         2.584740
 H         3.571780        -0.597175         2.452783
 H         3.297968         2.386975        -0.002843
 H         2.454146         0.579971        -2.251001
 H         1.895265        -2.143043        -0.958957
 H         3.469676        -2.311255         0.231170
