19
Iteration:  4357charge 0 multiplicity 1
 C         0.111598         0.746998        -0.240640
 C         1.416104         0.155287         0.121180
 C         1.707904        -1.150845         1.060767
 C         2.712859        -0.239817         1.908849
 C         2.677126         0.671530         0.661853
 O         3.243722         1.925477         0.705842
 C         2.694051        -0.192495        -0.558781
 O         3.063081         0.337805        -1.833030
 C         2.700376        -1.620987        -0.043829
 H        -0.498062         0.857055         0.645886
 H         0.317871         1.782039        -0.591485
 H        -0.535734         0.198891        -0.927430
 H         1.116416        -1.765205         1.777328
 H         2.407138         0.310548         2.756924
 H         3.687082        -0.606022         2.020959
 H         3.631489         2.005394        -0.221237
 H         4.116259         0.254945        -1.868632
 H         2.294176        -2.369724        -0.827572
 H         3.630403        -2.008600         0.437186
