19
Iteration:   764
 C         0.061466         0.652257        -0.416124
 C         1.373282         0.065718         0.039136
 C         1.846214        -1.389452         0.515724
 C         2.546102        -0.720047         1.818104
 C         2.556067         0.548558         0.892319
 O         2.898024         1.865025         1.280560
 C         2.799596         0.033831        -0.560246
 O         3.302150         0.954971        -1.439835
 C         3.102149        -1.497730        -0.445256
 H        -0.002669         1.750690        -0.128678
 H        -0.031863         0.719696        -1.560436
 H        -0.869668         0.114863        -0.169126
 H         1.228357        -2.205201         0.757371
 H         1.723722        -0.563665         2.552446
 H         3.597871        -1.148919         1.984333
 H         3.618130         2.144094         0.605731
 H         2.638175         0.971658        -2.205527
 H         2.792224        -2.095445        -1.326487
 H         4.009240        -1.803731         0.027734
