19
Iteration:  3222
 C         0.164808         0.850498        -0.232242
 C         1.317902        -0.014169         0.150132
 C         1.848774        -1.309347         0.955534
 C         2.703794        -0.380492         1.904455
 C         2.574998         0.563573         0.754824
 O         2.962096         1.972399         0.796991
 C         2.754786        -0.105672        -0.554178
 O         3.342771         0.633337        -1.656566
 C         2.791278        -1.627607        -0.303619
 H        -0.771802         0.509502         0.190166
 H         0.193048         1.856392         0.150722
 H        -0.088449         0.941838        -1.313509
 H         1.139328        -2.064073         1.295642
 H         2.154660        -0.116150         2.822428
 H         3.620799        -0.970116         2.277252
 H         3.287334         2.049050        -0.193898
 H         3.098711         0.184714        -2.450759
 H         2.179027        -2.404970        -0.923877
 H         3.760698        -2.081107        -0.105911
