19
Iteration:  4255charge 0 multiplicity 1
 C         0.105675         0.735856        -0.286303
 C         1.336457         0.100686         0.221025
 C         1.822805        -1.146380         1.053010
 C         2.670733        -0.236355         1.940525
 C         2.684492         0.753993         0.725573
 O         3.206251         1.952006         0.644322
 C         2.661190        -0.183466        -0.508458
 O         3.236677         0.299965        -1.744033
 C         2.707800        -1.665440        -0.196454
 H         0.366069         1.769630        -0.467468
 H        -0.427202         0.392470        -1.287871
 H        -0.606928         0.620838         0.537105
 H         1.118671        -1.814389         1.506304
 H         2.176728        -0.033982         2.909805
 H         3.630865        -0.661035         2.413954
 H         3.706804         2.126043        -0.171797
 H         2.494133         0.799102        -2.138513
 H         2.148343        -2.242195        -1.037390
 H         3.766584        -1.989243         0.030740
