19
Iteration:  2304
 C        -0.022120         0.690819        -0.168010
 C         1.314209         0.045513         0.151063
 C         1.828055        -1.224870         0.889272
 C         2.604372        -0.252333         1.874078
 C         2.715632         0.686822         0.766663
 O         3.116176         1.956158         0.829907
 C         2.830659        -0.123159        -0.576264
 O         3.296950         0.387556        -1.745476
 C         2.818004        -1.555707        -0.264492
 H         0.097590         1.792279        -0.032522
 H        -0.407694         0.568728        -1.203756
 H        -0.690326         0.347768         0.566888
 H         1.111418        -1.948894         1.275343
 H         1.751561         0.107584         2.643468
 H         3.572450        -0.682488         2.439437
 H         3.560717         2.078643         0.024982
 H         2.491320         0.552974        -2.310855
 H         2.438552        -2.334176        -0.905780
 H         3.733990        -1.877422         0.170787
