19
Iteration:     4
 C         0.092457         0.585024        -0.478226
 C         1.419209         0.004027        -0.057485
 C         1.916751        -1.465106         0.299820
 C         2.488157        -0.913302         1.636140
 C         2.493141         0.411555         0.979510
 O         2.663304         1.648512         1.536742
 C         2.864012         0.190451        -0.504930
 O         3.425899         1.302577        -1.121518
 C         3.100502        -1.299617        -0.687376
 H        -0.667682         0.260640         0.182867
 H         0.239036         1.683611        -0.606754
 H        -0.212107         0.217207        -1.520470
 H         1.334573        -2.284471         0.209579
 H         1.808850        -0.951697         2.406463
 H         3.441564        -1.390333         1.893465
 H         3.248787         2.253168         0.932366
 H         3.115077         1.425196        -2.091361
 H         2.910015        -1.578648        -1.755557
 H         4.182157        -1.685392        -0.413090
