19
Iteration:  4561
 C         0.125690         0.793143        -0.297197
 C         1.288147         0.139437         0.201778
 C         1.843185        -1.077792         1.146927
 C         2.800368        -0.265262         1.886796
 C         2.712073         0.726008         0.703109
 O         3.303128         1.968074         0.599943
 C         2.610128        -0.190356        -0.526170
 O         3.069403         0.087681        -1.780154
 C         2.635512        -1.574559        -0.067389
 H         0.439832         1.732375        -0.849239
 H        -0.386107         0.249354        -1.194364
 H        -0.664544         1.165128         0.381253
 H         1.189336        -1.734038         1.725898
 H         2.516797         0.232082         2.788580
 H         3.821428        -0.568604         1.972524
 H         2.739626         2.422611        -0.108888
 H         3.850254         0.569094        -1.803858
 H         1.985851        -2.273321        -0.671968
 H         3.689827        -1.997403         0.153793
