19
Iteration:  1628
 C         0.129099         0.603744        -0.322890
 C         1.423484         0.087260         0.073438
 C         1.875628        -1.377666         0.823777
 C         2.563639        -0.501295         1.881484
 C         2.606172         0.612175         0.825016
 O         3.001346         1.956529         1.077560
 C         2.801360        -0.063769        -0.542429
 O         3.369278         0.773566        -1.656621
 C         2.779429        -1.572611        -0.388361
 H         0.221012         1.630363         0.099045
 H        -0.244078         0.571673        -1.411468
 H        -0.621851         0.174292         0.254434
 H         0.989533        -2.050971         1.071926
 H         1.755967        -0.087818         2.642578
 H         3.568198        -0.821049         2.373305
 H         2.964126         2.453036         0.140465
 H         2.771374         0.380893        -2.444306
 H         2.129710        -1.901379        -1.171841
 H         3.727798        -2.166461        -0.387393
