19
Iteration:  3499charge 0 multiplicity 1
 C         0.006267         0.748629        -0.181075
 C         1.383688         0.147948         0.102399
 C         1.845742        -1.272107         0.843503
 C         2.601799        -0.418136         1.888953
 C         2.621542         0.639850         0.716502
 O         3.000425         1.959855         0.897288
 C         2.729299        -0.158988        -0.635821
 O         3.475396         0.650226        -1.561047
 C         2.768918        -1.677987        -0.346029
 H        -0.036854         1.314159        -1.157326
 H        -0.696131        -0.129208        -0.383928
 H        -0.442389         1.257586         0.686977
 H         1.200844        -2.082503         1.228079
 H         1.919319        -0.154008         2.715166
 H         3.605072        -0.677003         2.354967
 H         3.569057         2.173509         0.189143
 H         3.110034         0.241220        -2.279186
 H         2.264506        -2.365123        -1.075964
 H         3.738576        -2.128882        -0.224315
