19
Iteration:  2968
 C         0.115483         0.865994        -0.175444
 C         1.384013         0.073983         0.062617
 C         1.827661        -1.256112         0.982020
 C         2.747496        -0.393178         1.904936
 C         2.663259         0.708779         0.771231
 O         2.934261         2.045528         0.736022
 C         2.637560        -0.208948        -0.648889
 O         3.338947         0.530489        -1.685694
 C         2.736551        -1.763597        -0.181676
 H         0.241334         1.915710         0.116377
 H        -0.066966         0.724696        -1.227614
 H        -0.700953         0.289571         0.293958
 H         1.085218        -1.914754         1.352558
 H         2.438766        -0.172722         2.982406
 H         3.796806        -0.764448         2.058824
 H         3.951618         2.137072         0.504006
 H         2.893704         0.216673        -2.488434
 H         2.210978        -2.515450        -0.903733
 H         3.753457        -2.136952         0.014718
