19
Iteration:   895charge 0 multiplicity 1
 C         0.149543         0.662031        -0.321062
 C         1.421338        -0.037633        -0.047830
 C         1.856258        -1.447187         0.636557
 C         2.449405        -0.521031         1.845799
 C         2.596611         0.528788         0.833985
 O         2.861438         1.830846         1.267897
 C         2.856625        -0.020271        -0.593383
 O         3.332197         0.950974        -1.482666
 C         2.980555        -1.459001        -0.475527
 H        -0.664009        -0.112128        -0.097108
 H         0.206927         1.655459         0.211348
 H         0.040596         0.935138        -1.366967
 H         1.308135        -2.395331         0.705515
 H         1.591618        -0.085504         2.531375
 H         3.408130        -0.877482         2.350074
 H         3.295070         2.223847         0.562023
 H         2.684560         1.109546        -2.124134
 H         2.669415        -1.983510        -1.502442
 H         3.963501        -2.129681        -0.267100
