19
Iteration:  3702
 C         0.010848         0.784505        -0.189151
 C         1.378308         0.135483         0.018736
 C         1.791397        -1.246952         0.887486
 C         2.658091        -0.472562         1.943889
 C         2.560037         0.646222         0.788207
 O         3.093203         1.906449         0.723404
 C         2.693053        -0.136914        -0.620329
 O         3.358903         0.636382        -1.597766
 C         2.813289        -1.591267        -0.202901
 H        -0.490775         0.452095         0.691000
 H         0.182335         1.842014        -0.108185
 H        -0.542552         0.504455        -1.134767
 H         1.202004        -2.193191         1.249425
 H         1.987408        -0.179631         2.816745
 H         3.635426        -0.921163         2.108473
 H         3.816199         1.806523        -0.026733
 H         3.256817         0.095965        -2.453293
 H         2.402127        -2.312455        -0.848293
 H         3.781865        -1.879912         0.272111
