19
Iteration:   902charge 0 multiplicity 1
 C         0.215390         0.654220        -0.316999
 C         1.446827        -0.013159        -0.002101
 C         1.868344        -1.438848         0.586988
 C         2.476733        -0.550628         1.812137
 C         2.515503         0.504105         0.820992
 O         2.849377         1.813748         1.264776
 C         2.810196         0.023739        -0.591805
 O         3.357921         0.945270        -1.506103
 C         2.973193        -1.480382        -0.427363
 H        -0.564837        -0.036215        -0.088055
 H         0.105132         1.513325         0.301490
 H         0.122124         0.957808        -1.396550
 H         1.184210        -2.259638         0.827993
 H         1.766799        -0.249141         2.500394
 H         3.390851        -0.744777         2.273518
 H         3.266347         2.310183         0.520401
 H         2.618426         1.103496        -2.203499
 H         2.591663        -1.901009        -1.298367
 H         3.855789        -1.912529        -0.052616
