19
Iteration:  4741charge 0 multiplicity 1
 C         0.040691         0.813002        -0.335006
 C         1.392172         0.107354         0.250091
 C         1.739165        -1.000033         1.266857
 C         2.854899        -0.160282         1.908925
 C         2.739030         0.731137         0.664803
 O         3.356727         1.852239         0.267628
 C         2.622449        -0.254470        -0.488291
 O         3.066795         0.188593        -1.775318
 C         2.617130        -1.670061         0.028562
 H        -0.378227         0.164292        -1.085552
 H        -0.624321         0.817698         0.568921
 H         0.272233         1.770503        -0.807382
 H         1.014129        -1.468839         1.915753
 H         2.439736         0.271102         2.750666
 H         3.772673        -0.674315         2.133470
 H         3.181220         2.390816         1.018415
 H         3.349001         1.055198        -1.851309
 H         2.027967        -2.360096        -0.620441
 H         3.432466        -2.123221         0.613181
