19
Iteration:  4889
 C         0.171559         0.789862        -0.187743
 C         1.439647         0.205580         0.235960
 C         1.715285        -0.977760         1.240586
 C         2.770981        -0.123875         1.916828
 C         2.807915         0.728271         0.581528
 O         3.313598         1.974842         0.278167
 C         2.627292        -0.323769        -0.489615
 O         2.924379         0.113359        -1.841452
 C         2.600346        -1.662713         0.118501
 H        -0.483436         0.681785         0.757838
 H         0.136094         1.858106        -0.421680
 H        -0.357907         0.149035        -0.940235
 H         1.070697        -1.468778         1.948641
 H         2.419788         0.526723         2.807344
 H         3.762746        -0.546081         2.202453
 H         4.061373         1.768305        -0.370803
 H         3.852085        -0.108153        -2.099552
 H         1.987444        -2.396635        -0.363160
 H         3.464040        -2.194656         0.566186
