19
Iteration:  4413charge 0 multiplicity 1
 C         0.244453         0.801404        -0.203250
 C         1.397510         0.131682         0.276438
 C         1.817163        -1.107153         1.040882
 C         2.693604        -0.264880         1.976138
 C         2.736401         0.678959         0.702909
 O         3.135455         1.967251         0.531873
 C         2.757680        -0.213290        -0.555432
 O         3.106415         0.173134        -1.829552
 C         2.631761        -1.618722        -0.150793
 H        -0.690980         0.211023        -0.011608
 H         0.039341         1.780043         0.222329
 H         0.421145         1.153569        -1.238888
 H         1.056511        -1.749528         1.549597
 H         2.154634         0.297853         2.721324
 H         3.582313        -0.561305         2.413219
 H         2.504135         2.658113         0.786313
 H         3.810575         0.865997        -1.827528
 H         1.815879        -2.054695        -0.817978
 H         3.423239        -2.447697        -0.003623
