19
Iteration:  4966
 C         0.093242         0.840109        -0.218653
 C         1.418118         0.235920         0.177287
 C         1.773287        -0.951709         1.287029
 C         2.885274        -0.035810         1.910785
 C         2.835648         0.788778         0.601868
 O         3.256956         2.010027         0.346542
 C         2.620266        -0.376793        -0.480230
 O         3.040610        -0.061824        -1.862395
 C         2.578796        -1.730880         0.145155
 H        -0.253226         0.431525        -1.223029
 H        -0.565309         0.625109         0.644850
 H         0.257479         1.957115        -0.341031
 H         1.091774        -1.422981         1.950407
 H         2.777584         0.464163         2.935145
 H         3.748549        -0.678760         2.069186
 H         3.374080         2.008294        -0.620533
 H         2.200043         0.195335        -2.220941
 H         1.915064        -2.454409        -0.353757
 H         3.567755        -2.230507         0.408043
