19
Iteration:  2624
 C         0.170461         0.734513        -0.337849
 C         1.368694         0.041394         0.211898
 C         1.817635        -1.218718         1.123563
 C         2.701775        -0.283298         1.848142
 C         2.707306         0.711765         0.686215
 O         3.226286         1.990614         0.816508
 C         2.688506        -0.142039        -0.553177
 O         3.134440         0.405966        -1.779040
 C         2.686182        -1.617635        -0.172763
 H         0.007840         0.514858        -1.411741
 H        -0.727153         0.154518         0.089653
 H         0.031425         1.787620        -0.034919
 H         1.204813        -2.027360         1.515944
 H         2.147081         0.344364         2.628131
 H         3.577350        -0.624495         2.409569
 H         3.461032         2.359453        -0.144591
 H         2.370954         0.130672        -2.465678
 H         2.165763        -2.325654        -0.897538
 H         3.635609        -2.058349         0.131209
