19
Iteration:  3936
 C         0.108467         0.760937        -0.156011
 C         1.468107         0.068297         0.110348
 C         1.756908        -1.210159         0.945277
 C         2.611013        -0.365465         1.933602
 C         2.749329         0.631664         0.744932
 O         3.028406         2.045229         0.704213
 C         2.709613        -0.154926        -0.600219
 O         3.299958         0.428246        -1.632554
 C         2.754709        -1.636781        -0.249609
 H         0.395708         1.779341        -0.563193
 H        -0.556088         0.304511        -0.962076
 H        -0.638755         0.820498         0.697522
 H         1.014784        -1.886331         1.350263
 H         1.930441         0.097435         2.658280
 H         3.555096        -0.860500         2.275875
 H         3.906675         2.361697         0.298562
 H         2.591347         0.247309        -2.335857
 H         2.197927        -2.199371        -1.151723
 H         3.781700        -2.051678        -0.064340
