19
Iteration:  1467
 C         0.107613         0.667551        -0.356785
 C         1.394155         0.069638         0.048772
 C         1.833633        -1.415337         0.750807
 C         2.565928        -0.516953         1.849910
 C         2.607648         0.601061         0.849462
 O         2.994796         1.903299         1.175932
 C         2.730687        -0.027297        -0.567480
 O         3.336220         0.766870        -1.642181
 C         2.914584        -1.491837        -0.355847
 H        -0.358163        -0.004082        -1.099368
 H        -0.540223         0.837824         0.577789
 H         0.224739         1.694872        -0.876282
 H         1.055206        -2.184514         1.042603
 H         1.876537        -0.382749         2.749143
 H         3.528532        -0.929127         2.109838
 H         3.289627         2.330006         0.277637
 H         2.733392         0.737280        -2.532294
 H         2.395931        -2.160904        -1.225753
 H         3.977604        -1.984333        -0.083941
