19
Iteration:  2295charge 0 multiplicity 1
 C         0.033675         0.723944        -0.166296
 C         1.453509         0.077301         0.136428
 C         1.812282        -1.253798         0.896472
 C         2.570717        -0.322258         1.879645
 C         2.704491         0.641391         0.720563
 O         3.101485         2.049027         0.807923
 C         2.751475        -0.161406        -0.570136
 O         3.270436         0.411722        -1.687425
 C         2.832816        -1.600652        -0.232292
 H         0.062572         1.801542        -0.178352
 H        -0.486801         0.371387        -1.009974
 H        -0.681689         0.422842         0.555721
 H         0.948309        -1.910787         1.197218
 H         1.947155         0.165860         2.639907
 H         3.457378        -0.811843         2.333769
 H         3.420224         2.307938        -0.030682
 H         2.551075         0.516537        -2.363328
 H         2.453908        -2.321357        -1.001568
 H         3.805557        -1.857732         0.047224
