19
Iteration:  1195charge 0 multiplicity 1
 C         0.045979         0.635225        -0.326204
 C         1.388550         0.018256         0.020544
 C         1.825115        -1.369950         0.761657
 C         2.494370        -0.534831         1.822455
 C         2.564371         0.582431         0.799079
 O         2.996939         1.849652         1.137892
 C         2.793034        -0.001526        -0.569791
 O         3.355516         0.883085        -1.445286
 C         2.994256        -1.501980        -0.531772
 H         0.058943         1.676128        -0.106255
 H        -0.263601         0.390917        -1.312016
 H        -0.734540         0.069300         0.271534
 H         1.108936        -2.170574         0.988883
 H         1.804927        -0.190801         2.528464
 H         3.359544        -0.961315         2.226484
 H         3.785912         2.069602         0.591389
 H         2.794861         0.848656        -2.315703
 H         2.514417        -2.096378        -1.323253
 H         3.992302        -1.968990        -0.237646
