19
Iteration:  4062
 C         0.043507         0.591023        -0.313238
 C         1.419217         0.174253         0.144761
 C         1.735029        -1.142936         0.998490
 C         2.657006        -0.289363         1.884844
 C         2.721227         0.701122         0.732493
 O         3.272790         1.924836         0.792983
 C         2.684364        -0.163038        -0.585740
 O         3.234679         0.496190        -1.665959
 C         2.657500        -1.632240        -0.149038
 H        -0.761155         0.204009         0.280609
 H         0.032536         1.656887        -0.269068
 H        -0.244309         0.402954        -1.327562
 H         1.002671        -1.901671         1.340324
 H         2.244287         0.038513         2.866580
 H         3.652106        -0.820923         2.041788
 H         3.645233         2.169402        -0.095631
 H         2.804227         0.284120        -2.595047
 H         2.145276        -2.309467        -0.808793
 H         3.678359        -2.009235         0.078953
