19
Iteration:  4986charge 0 multiplicity 1
 C         0.182666         0.826617        -0.109478
 C         1.401884         0.123716         0.279519
 C         1.787520        -0.941251         1.274551
 C         2.910532         0.015241         1.919703
 C         2.761399         0.733031         0.513687
 O         3.281740         2.029280         0.267320
 C         2.593751        -0.368684        -0.523622
 O         3.074474        -0.009273        -1.804086
 C         2.497423        -1.733916         0.131810
 H         0.208663         0.888857        -1.267996
 H        -0.662935         0.230338         0.083508
 H        -0.056900         1.825201         0.157388
 H         1.120474        -1.478214         1.925646
 H         2.351605         0.538848         2.696832
 H         3.792737        -0.342680         2.326948
 H         3.514229         1.893321        -0.716365
 H         2.518900         0.348324        -2.422732
 H         1.828685        -2.375475        -0.397074
 H         3.395035        -2.404702         0.444303
