19
Iteration:  3733
 C         0.023537         0.713181        -0.221310
 C         1.343818         0.083237         0.165587
 C         1.739782        -1.249695         0.888455
 C         2.656347        -0.315576         1.863841
 C         2.674367         0.643072         0.697179
 O         3.096379         1.965503         0.914437
 C         2.778943        -0.074820        -0.582526
 O         3.336189         0.506817        -1.680904
 C         2.760472        -1.630762        -0.314052
 H        -0.878773         0.223315         0.224278
 H         0.099536         1.746783         0.297222
 H        -0.111684         0.901973        -1.367656
 H         1.383624        -2.236557         1.317866
 H         1.854310         0.126109         2.530797
 H         3.535403        -0.743921         2.366943
 H         3.769756         2.220009         0.328062
 H         2.885083         0.060643        -2.364716
 H         2.416715        -2.377388        -1.018919
 H         3.726200        -2.184257         0.074300
