19
Iteration:  1193charge 0 multiplicity 1
 C         0.037309         0.643023        -0.315238
 C         1.391310         0.024780         0.016153
 C         1.846180        -1.364232         0.754837
 C         2.480432        -0.547402         1.825217
 C         2.558687         0.576720         0.790262
 O         2.999106         1.849849         1.134082
 C         2.808772        -0.009925        -0.542121
 O         3.355405         0.884657        -1.465973
 C         2.985626        -1.496891        -0.537898
 H         0.032585         1.734988        -0.147656
 H        -0.264408         0.330626        -1.352537
 H        -0.696382         0.085581         0.299939
 H         1.217523        -2.159643         1.007602
 H         1.666445        -0.193283         2.596131
 H         3.409224        -0.987325         2.309485
 H         3.721340         2.038929         0.594254
 H         2.833702         0.851112        -2.225466
 H         2.501132        -2.101552        -1.297369
 H         3.936416        -1.942475        -0.265305
