19
Iteration:  1609charge 0 multiplicity 1
 C         0.074439         0.652426        -0.220935
 C         1.450410         0.071356         0.082874
 C         1.756848        -1.239449         0.691200
 C         2.573855        -0.523781         1.850216
 C         2.671535         0.644285         0.797846
 O         2.979545         1.924636         1.085204
 C         2.798393        -0.040089        -0.575594
 O         3.350594         0.685269        -1.611596
 C         2.910360        -1.552955        -0.373678
 H         0.134886         1.727526        -0.405581
 H        -0.306851         0.089525        -1.129909
 H        -0.690715         0.243626         0.490738
 H         1.060417        -2.066174         0.993438
 H         1.901603        -0.179283         2.719945
 H         3.448913        -1.111948         2.110863
 H         2.752693         2.355255         0.174401
 H         2.728921         0.498890        -2.398249
 H         2.511404        -2.120506        -1.218962
 H         3.683596        -2.015161         0.163049
