19
Iteration:  3713charge 0 multiplicity 1
 C         0.063842         0.785078        -0.184669
 C         1.350070         0.100871         0.068319
 C         1.832028        -1.250950         0.907360
 C         2.646025        -0.373863         1.868164
 C         2.571828         0.639335         0.776761
 O         3.111737         1.905341         0.802316
 C         2.628081        -0.152729        -0.682404
 O         3.338416         0.542305        -1.594853
 C         2.841773        -1.555892        -0.226634
 H        -0.696243         0.322923         0.446275
 H        -0.067252         1.822978         0.041693
 H        -0.423608         0.611807        -1.216225
 H         0.893579        -1.955427         1.141025
 H         2.049394        -0.231162         2.852817
 H         3.537175        -0.836618         2.310259
 H         3.895118         2.136480         0.237038
 H         3.359041         0.194895        -2.431865
 H         2.477422        -2.289954        -0.874785
 H         3.896153        -1.924170        -0.058433
