19
Iteration:  2444
 C         0.108767         0.728847        -0.226613
 C         1.455731         0.150386         0.148142
 C         1.801891        -1.190642         0.947543
 C         2.607944        -0.285164         1.982442
 C         2.708856         0.702132         0.814450
 O         3.149894         1.966295         0.801241
 C         2.680492        -0.189105        -0.633699
 O         3.147398         0.396722        -1.803066
 C         2.854977        -1.624920        -0.204720
 H        -0.809133         0.354837         0.349268
 H        -0.060746         1.850563        -0.142885
 H        -0.196950         0.297316        -1.229180
 H         1.064528        -1.816091         1.367653
 H         1.930200         0.111000         2.731440
 H         3.427986        -0.868728         2.321607
 H         3.784073         2.121052        -0.004483
 H         2.383659         0.268835        -2.471820
 H         2.561957        -2.287142        -1.014180
 H         3.865407        -2.024360         0.279953
