19
Iteration:  1421
 C         0.113019         0.649122        -0.295917
 C         1.386370         0.022320         0.080215
 C         1.915940        -1.365415         0.761666
 C         2.534140        -0.580580         1.865133
 C         2.545022         0.607495         0.832423
 O         2.977678         1.938514         1.051126
 C         2.727877        -0.050851        -0.646468
 O         3.353357         0.847949        -1.501231
 C         2.880434        -1.527614        -0.413963
 H        -0.754806        -0.061875        -0.406274
 H        -0.194135         1.551611         0.369655
 H         0.210181         1.108492        -1.283981
 H         1.305181        -2.233659         0.944715
 H         1.692396        -0.293566         2.557125
 H         3.381641        -1.036708         2.317216
 H         3.837264         2.210980         0.570763
 H         3.146287         0.705196        -2.523106
 H         2.224854        -2.206347        -1.165693
 H         3.947066        -2.058735        -0.271303
