19
Iteration:  1151
 C         0.120533         0.644420        -0.285940
 C         1.423778         0.048496         0.038447
 C         1.765754        -1.297438         0.648068
 C         2.534695        -0.636751         1.800109
 C         2.626198         0.555574         0.814728
 O         2.868170         1.901958         1.165141
 C         2.826424        -0.019436        -0.601062
 O         3.421482         0.843878        -1.473138
 C         2.904964        -1.515230        -0.429510
 H         0.236080         1.477836        -0.951135
 H        -0.513303        -0.145161        -0.596639
 H        -0.520768         0.950261         0.602887
 H         1.243413        -2.225170         0.858694
 H         1.897561        -0.487970         2.554388
 H         3.388534        -1.142833         2.029095
 H         3.225034         2.468754         0.373665
 H         2.641517         0.926655        -2.213727
 H         2.667409        -2.059173        -1.364671
 H         4.001155        -1.732728        -0.076828
