19
Iteration:  2034charge 0 multiplicity 1
 C         0.073727         0.772668        -0.226863
 C         1.357270        -0.002408         0.067582
 C         1.847965        -1.334932         0.906689
 C         2.580950        -0.329340         1.839406
 C         2.614954         0.665079         0.758339
 O         3.086148         1.939866         0.960264
 C         2.705983        -0.117429        -0.641696
 O         3.253458         0.605442        -1.681146
 C         2.860916        -1.613066        -0.252956
 H        -0.555302         0.752578         0.669833
 H         0.306045         1.786287        -0.700996
 H        -0.568027         0.206648        -0.891294
 H         1.093734        -2.053745         1.192706
 H         2.071298         0.017785         2.739395
 H         3.686370        -0.658435         2.339727
 H         3.852639         2.120562         0.279109
 H         2.986006         0.129139        -2.536477
 H         2.679298        -2.314952        -1.020286
 H         3.835149        -1.881696         0.149038
