19
Iteration:  4094charge 0 multiplicity 1
 C        -0.034604         0.694532        -0.316420
 C         1.355437         0.159769         0.190434
 C         1.793811        -1.284682         0.991065
 C         2.572265        -0.296523         1.898374
 C         2.705342         0.717982         0.752034
 O         3.335641         1.880952         0.609247
 C         2.654391        -0.130690        -0.535658
 O         3.197338         0.515903        -1.591277
 C         2.759826        -1.568728        -0.169546
 H        -0.888844         0.105581        -0.068549
 H        -0.294529         1.631198         0.213375
 H        -0.012132         0.900794        -1.339913
 H         1.203974        -2.168127         1.374703
 H         2.088763         0.031598         2.821749
 H         3.556595        -0.692880         2.268118
 H         3.997783         1.784158        -0.106418
 H         3.420949        -0.083970        -2.307167
 H         2.273678        -2.221136        -0.878988
 H         3.775327        -1.818583         0.101958
