19
Iteration:  3166
 C         0.116028         0.728271        -0.265450
 C         1.434107         0.070063         0.045260
 C         1.790841        -1.246351         0.887568
 C         2.637304        -0.395928         1.940109
 C         2.708289         0.654363         0.844396
 O         3.029202         1.999772         0.946896
 C         2.746540        -0.092925        -0.570857
 O         3.222043         0.479587        -1.838161
 C         2.828549        -1.574229        -0.185186
 H        -0.613685        -0.069306        -0.538883
 H        -0.227715         1.178719         0.648152
 H         0.344186         1.489610        -1.035006
 H         1.031502        -1.882924         1.183687
 H         1.931829        -0.064439         2.747694
 H         3.611301        -0.933571         2.115291
 H         3.635308         2.005261         0.160943
 H         2.484864         0.523035        -2.383753
 H         2.222999        -2.181590        -0.971336
 H         3.748952        -2.137465         0.075020
