19
Iteration:  4593
 C         0.207175         0.868113        -0.259606
 C         1.488270         0.167366         0.187549
 C         1.817596        -1.043415         1.131461
 C         2.762772        -0.179374         1.914709
 C         2.792739         0.657988         0.660336
 O         3.155368         2.047080         0.575508
 C         2.729170        -0.332019        -0.561461
 O         2.962652         0.205892        -1.811461
 C         2.589111        -1.808114        -0.038762
 H         0.420782         1.960663         0.025610
 H         0.184195         0.583708        -1.339001
 H        -0.729285         0.594658         0.277519
 H         1.000488        -1.623999         1.572198
 H         2.285904         0.322637         2.771389
 H         3.702025        -0.489304         2.266649
 H         2.594962         2.210605        -0.194666
 H         3.912615         0.653569        -1.841139
 H         1.914350        -2.565555        -0.503964
 H         3.506610        -2.357771         0.406351
