19
Iteration:  3040
 C         0.076966         0.724189        -0.258949
 C         1.397856         0.133972         0.147985
 C         1.750971        -1.281955         0.902831
 C         2.665098        -0.325055         1.819274
 C         2.746677         0.651494         0.709165
 O         3.052637         2.026664         0.921506
 C         2.713685        -0.144892        -0.599086
 O         3.228800         0.482568        -1.719106
 C         2.832081        -1.685260        -0.174191
 H         0.278906         1.244694        -1.212259
 H        -0.709227        -0.103316        -0.280577
 H        -0.198481         1.466212         0.500326
 H         0.817563        -1.879403         1.288027
 H         2.210414         0.139042         2.683314
 H         3.575998        -0.726228         2.247505
 H         3.817241         2.077699         0.217881
 H         2.562036         0.481561        -2.405291
 H         2.441422        -2.340016        -0.900681
 H         3.827716        -2.063800         0.150036
