19
Iteration:   625charge 0 multiplicity 1
 C         0.001367         0.569067        -0.347567
 C         1.449208         0.046928        -0.017116
 C         1.828636        -1.358691         0.470157
 C         2.459644        -0.774484         1.834983
 C         2.552027         0.489249         0.854174
 O         2.839649         1.852642         1.220337
 C         2.943082         0.098878        -0.522865
 O         3.440342         1.084712        -1.363310
 C         2.987307        -1.438739        -0.484653
 H        -0.435935        -0.346753        -0.766921
 H        -0.539180         0.870983         0.615905
 H        -0.139377         1.425011        -0.982091
 H         1.071414        -2.226887         0.527544
 H         1.739828        -0.770777         2.735909
 H         3.382836        -1.383118         2.035941
 H         3.462653         2.254997         0.620176
 H         3.153461         0.928072        -2.246877
 H         2.551697        -1.891780        -1.424933
 H         3.947116        -2.112569        -0.162287
