19
Iteration:  2194
 C         0.085864         0.600532        -0.225430
 C         1.441793         0.110550         0.087137
 C         1.784789        -1.233386         0.923565
 C         2.651028        -0.365288         1.854196
 C         2.695269         0.677124         0.725823
 O         3.132155         1.964184         0.865125
 C         2.730969        -0.099562        -0.614320
 O         3.257997         0.566309        -1.657448
 C         2.769132        -1.633852        -0.175682
 H        -0.078493         0.519621        -1.352899
 H        -0.729868         0.011274         0.140573
 H         0.012585         1.679132        -0.134601
 H         0.922882        -1.774634         1.184341
 H         1.903941        -0.036378         2.675536
 H         3.483569        -0.843551         2.425772
 H         3.366901         2.348416         0.072717
 H         2.471642         0.638911        -2.371544
 H         2.180622        -2.222977        -0.910888
 H         3.655973        -2.165703         0.138761
