19
Iteration:   410
 C         0.039844         0.656234        -0.384985
 C         1.443365        -0.005929        -0.133870
 C         1.914633        -1.453855         0.463111
 C         2.520739        -0.744809         1.781433
 C         2.540280         0.442737         0.884263
 O         2.679961         1.735978         1.347265
 C         2.856977         0.061832        -0.576080
 O         3.458894         1.201418        -1.245783
 C         3.037636        -1.426957        -0.554980
 H         0.034308         1.388774        -1.163463
 H        -0.775386        -0.026732        -0.566496
 H        -0.145868         1.271395         0.616024
 H         1.161630        -2.364876         0.406099
 H         1.757513        -0.656845         2.661948
 H         3.583064        -1.020997         2.138402
 H         3.260572         2.163498         0.617166
 H         3.328940         1.113798        -2.156408
 H         2.586554        -1.878228        -1.569362
 H         4.068111        -2.016437        -0.239079
