19
Iteration:  3847
 C         0.035608         0.667229        -0.310993
 C         1.409550         0.082087         0.069652
 C         1.719628        -1.254295         0.938649
 C         2.621815        -0.463400         1.996367
 C         2.779498         0.654254         0.765021
 O         3.225952         1.922064         0.702804
 C         2.709832        -0.075065        -0.474664
 O         3.175090         0.626447        -1.666178
 C         2.749080        -1.543043        -0.181630
 H        -0.104140         0.618330        -1.412808
 H        -0.768582         0.148324         0.181240
 H         0.028336         1.777486        -0.107153
 H         0.942196        -1.900069         1.283717
 H         1.966920         0.017667         2.743303
 H         3.555687        -0.764042         2.521389
 H         3.848499         2.065248        -0.074843
 H         3.320827         0.055153        -2.403235
 H         2.178464        -2.129289        -0.964858
 H         3.643444        -2.159528         0.109897
