19
Iteration:   445charge 0 multiplicity 1
 C         0.123468         0.588438        -0.340689
 C         1.436921         0.000333        -0.007945
 C         1.913213        -1.491763         0.415367
 C         2.408970        -0.738218         1.770834
 C         2.494435         0.506568         0.955270
 O         2.765620         1.807586         1.359836
 C         2.845445         0.110394        -0.585149
 O         3.469624         1.086816        -1.311430
 C         3.043133        -1.394149        -0.617404
 H         0.234064         1.664014        -0.590534
 H        -0.456109         0.100873        -1.160316
 H        -0.554100         0.567775         0.589997
 H         1.230749        -2.321358         0.285207
 H         1.558659        -0.724138         2.523107
 H         3.367960        -1.062673         2.337809
 H         2.895492         2.292050         0.522496
 H         3.264658         1.174511        -2.246438
 H         2.686583        -1.849865        -1.638177
 H         4.148763        -1.809183        -0.363177
