19
Iteration:  3195charge 0 multiplicity 1
 C         0.206723         0.831857        -0.240967
 C         1.418665         0.068501         0.112828
 C         1.822890        -1.314868         0.883749
 C         2.664338        -0.346722         1.852313
 C         2.730322         0.601619         0.737568
 O         2.931916         1.996532         0.911048
 C         2.714509        -0.144714        -0.550025
 O         3.220270         0.532967        -1.675520
 C         2.826038        -1.654597        -0.264282
 H        -0.710600         0.184827        -0.018761
 H        -0.038101         1.711322         0.436687
 H         0.149770         1.188577        -1.307803
 H         1.056052        -2.009265         1.302836
 H         1.932600         0.038469         2.608911
 H         3.524607        -0.802994         2.291249
 H         3.413375         2.188981         0.002877
 H         2.737514         0.263510        -2.439402
 H         2.407266        -2.321497        -0.938927
 H         3.817749        -2.092801         0.013563
