19
Iteration:  3777charge 0 multiplicity 1
 C         0.143067         0.743651        -0.375269
 C         1.454468         0.110694         0.233874
 C         1.780031        -1.246598         0.873426
 C         2.740815        -0.384262         1.900528
 C         2.705561         0.660034         0.776535
 O         3.080815         2.012110         0.941492
 C         2.710813        -0.178000        -0.556363
 O         3.238453         0.490354        -1.708661
 C         2.667971        -1.641069        -0.254366
 H        -0.433496        -0.187421        -0.561034
 H        -0.458481         1.396022         0.339007
 H         0.370474         1.184789        -1.420094
 H         0.893602        -1.795710         1.327238
 H         2.044062        -0.014544         2.668996
 H         3.703354        -0.765671         2.140816
 H         3.061989         2.335722         0.050294
 H         2.631210         0.692216        -2.348296
 H         2.303020        -2.208959        -1.111278
 H         3.676283        -2.136707         0.107874
