19
Iteration:  2214
 C         0.042161         0.716991        -0.327886
 C         1.351766         0.089679         0.153187
 C         1.753108        -1.254715         0.956895
 C         2.730151        -0.359152         1.897818
 C         2.667287         0.643320         0.830508
 O         3.051207         1.956270         0.785000
 C         2.780609        -0.147214        -0.524377
 O         3.285514         0.543717        -1.660070
 C         2.803277        -1.584415        -0.278416
 H        -0.217976         0.888348        -1.373623
 H        -0.718890        -0.038577        -0.115147
 H        -0.075696         1.656610         0.078876
 H         1.143952        -2.003451         1.417074
 H         2.358938        -0.005833         2.959702
 H         3.780665        -0.857766         2.070029
 H         3.548465         2.050828        -0.031307
 H         2.662370         0.577490        -2.445309
 H         2.258626        -2.094687        -1.018328
 H         3.660670        -2.111089         0.061120
