19
Iteration:  4233
 C         0.157217         0.778716        -0.173099
 C         1.482391         0.146317         0.092325
 C         1.773396        -1.231915         1.033556
 C         2.650908        -0.249719         2.004707
 C         2.724632         0.673453         0.719992
 O         3.093862         1.974334         0.607662
 C         2.790550        -0.183549        -0.588736
 O         3.170089         0.354176        -1.772379
 C         2.664009        -1.652671        -0.113865
 H         0.365246         1.467595        -0.995122
 H        -0.376232         0.014515        -0.881697
 H        -0.539459         1.185304         0.554614
 H         1.185852        -2.053024         1.406882
 H         2.032434         0.214991         2.794348
 H         3.439366        -0.705332         2.676157
 H         4.026213         2.105419         0.342678
 H         2.458067         0.866999        -2.228350
 H         1.941129        -2.269560        -0.787078
 H         3.656336        -2.142002         0.134916
