19
Iteration:  3540
 C         0.110718         0.774259        -0.340024
 C         1.387774         0.089703         0.144135
 C         1.801358        -1.316218         0.901861
 C         2.686975        -0.515115         1.885826
 C         2.590133         0.640674         0.837657
 O         2.996353         1.979629         0.828430
 C         2.821094        -0.096123        -0.523552
 O         3.326814         0.641492        -1.634331
 C         2.778249        -1.618739        -0.246257
 H         0.256511         1.789926        -0.741984
 H        -0.416917         0.258315        -1.197491
 H        -0.706220         0.825642         0.457821
 H         0.998840        -2.093564         1.249419
 H         2.143678        -0.168227         2.714380
 H         3.591529        -1.063542         1.981966
 H         3.596553         1.957402        -0.031408
 H         2.641039         0.813043        -2.399813
 H         2.262005        -2.295265        -1.054638
 H         3.677963        -2.144263         0.099839
