19
Iteration:  3337
 C        -0.008625         0.679508        -0.417604
 C         1.377403         0.101728         0.166144
 C         1.840245        -1.247620         0.916392
 C         2.644462        -0.444883         1.937902
 C         2.649901         0.642928         0.761058
 O         3.192496         1.949961         0.957309
 C         2.730323        -0.093883        -0.618429
 O         3.227105         0.698279        -1.669536
 C         2.787324        -1.674825        -0.246614
 H        -0.228309         1.698415        -0.019452
 H         0.026625         0.717905        -1.515968
 H        -0.775916        -0.013724        -0.164890
 H         1.048492        -1.846470         1.315602
 H         2.145693        -0.279929         2.935458
 H         3.575420        -0.970324         2.190891
 H         3.519432         2.323614         0.163653
 H         2.937103         0.339127        -2.451522
 H         2.404674        -2.275941        -1.057050
 H         3.711236        -2.297485         0.110532
