19
Iteration:   667charge 0 multiplicity 1
 C        -0.037953         0.657560        -0.393544
 C         1.365295         0.021110         0.030779
 C         1.921950        -1.391777         0.566238
 C         2.641752        -0.639158         1.765471
 C         2.517738         0.528502         0.906626
 O         2.774794         1.820738         1.297713
 C         2.721883         0.036086        -0.588507
 O         3.589426         0.970655        -1.351237
 C         2.929789        -1.467892        -0.604171
 H        -0.249309         0.606432        -1.508215
 H        -0.789483        -0.067183         0.083722
 H        -0.344323         1.640765        -0.144529
 H         1.495184        -2.284182         0.737857
 H         1.861588        -0.667296         2.581201
 H         3.538204        -0.864293         2.436585
 H         3.521342         2.130837         0.767328
 H         3.260336         1.089835        -2.364201
 H         2.557307        -1.978279        -1.517020
 H         3.922940        -1.879817        -0.298300
