19
Iteration:  3663
 C         0.132670         0.705037        -0.205758
 C         1.426587         0.075793         0.070554
 C         1.872979        -1.251784         0.890658
 C         2.577249        -0.365138         1.902458
 C         2.657881         0.600929         0.813120
 O         3.055111         1.975284         0.807465
 C         2.688791        -0.159013        -0.591447
 O         3.392403         0.588937        -1.552369
 C         2.665421        -1.638577        -0.333455
 H        -0.309499         1.278522         0.689709
 H         0.160766         1.526593        -0.999939
 H        -0.604243        -0.015430        -0.554191
 H         1.187945        -1.953251         1.268446
 H         1.906882         0.050542         2.635460
 H         3.585643        -0.694015         2.339342
 H         3.312187         2.259643        -0.110228
 H         2.915450         0.652972        -2.444725
 H         2.132692        -2.285923        -1.143687
 H         3.627075        -2.141942        -0.217650
