19
Iteration:  4615charge 0 multiplicity 1
 C         0.281952         0.872689        -0.227299
 C         1.434629         0.082904         0.164783
 C         1.777875        -1.147075         1.162809
 C         2.709329        -0.091623         1.995875
 C         2.777151         0.655355         0.596249
 O         3.206470         2.003838         0.547848
 C         2.698374        -0.294121        -0.559352
 O         2.997361         0.232374        -1.840045
 C         2.607578        -1.729121        -0.033192
 H         0.151359         1.691634         0.572240
 H         0.192623         1.001844        -1.340738
 H        -0.601157         0.249075         0.051531
 H         1.085533        -1.823846         1.730641
 H         2.231313         0.564797         2.746309
 H         3.640443        -0.269091         2.460510
 H         2.582426         2.509629        -0.045994
 H         3.863256         0.075808        -2.059962
 H         1.911650        -2.304161        -0.689233
 H         3.564041        -2.360476         0.126169
