19
Iteration:   344charge 0 multiplicity 1
 C         0.147172         0.491032        -0.469814
 C         1.469268         0.041393        -0.043994
 C         1.947355        -1.360159         0.442489
 C         2.485284        -0.737161         1.744375
 C         2.483587         0.525349         0.925188
 O         2.730352         1.718809         1.522621
 C         2.858336         0.116358        -0.617677
 O         3.436522         1.184524        -1.306521
 C         2.963867        -1.489604        -0.631148
 H        -0.025403         0.231541        -1.478173
 H        -0.654506         0.386333         0.232483
 H         0.267020         1.653423        -0.665592
 H         1.125098        -2.188078         0.641596
 H         1.663637        -0.791851         2.602147
 H         3.466603        -0.994875         2.333207
 H         3.341440         2.152140         0.985401
 H         2.765796         1.366511        -2.106875
 H         2.442552        -1.946252        -1.585252
 H         4.005828        -2.045442        -0.490681
