19
Iteration:   695charge 0 multiplicity 1
 C         0.168165         0.618318        -0.344730
 C         1.460632        -0.041317         0.023184
 C         1.754796        -1.324170         0.580976
 C         2.545395        -0.738902         1.740177
 C         2.554481         0.563162         0.884745
 O         2.746124         1.878378         1.248442
 C         2.884566         0.028836        -0.497090
 O         3.436480         0.994367        -1.386060
 C         2.966317        -1.446817        -0.532224
 H         0.206985         1.025692        -1.336474
 H        -0.535843        -0.169149        -0.402264
 H        -0.362738         1.342309         0.373807
 H         1.175132        -2.314314         0.522250
 H         2.085651        -0.680642         2.715409
 H         3.490436        -1.221338         1.838459
 H         2.974894         2.370198         0.491658
 H         3.009561         0.885238        -2.346924
 H         2.428678        -1.748833        -1.436785
 H         3.920110        -2.036986        -0.361158
