19
Iteration:  4140
 C         0.147136         0.786084        -0.183455
 C         1.428702         0.105062         0.067203
 C         1.749707        -1.143480         1.018625
 C         2.695283        -0.338116         1.855527
 C         2.670895         0.659989         0.697478
 O         3.123223         2.005182         0.736908
 C         2.765690        -0.185149        -0.529028
 O         3.215955         0.471004        -1.745035
 C         2.659611        -1.712056        -0.097033
 H        -0.381107         0.102859        -0.861931
 H        -0.496931         0.832162         0.638562
 H         0.184567         1.755229        -0.681304
 H         1.017711        -1.898144         1.379577
 H         2.100207         0.117300         2.702898
 H         3.581892        -0.782193         2.388949
 H         3.326695         2.205698        -0.208396
 H         3.542700        -0.356533        -2.300208
 H         2.057972        -2.039205        -0.876043
 H         3.563496        -2.305855         0.084183
