19
Iteration:  1869charge 0 multiplicity 1
 C         0.093505         0.715187        -0.292178
 C         1.353288         0.010783         0.078774
 C         1.854687        -1.316636         0.827907
 C         2.629590        -0.392680         1.874189
 C         2.650238         0.671277         0.783185
 O         3.036041         1.938417         1.065994
 C         2.676475        -0.080724        -0.588253
 O         3.305884         0.542819        -1.679798
 C         2.877686        -1.542145        -0.313026
 H        -0.076049         0.580275        -1.383184
 H        -0.930454         0.245717         0.034296
 H         0.097547         1.790294        -0.022821
 H         1.220680        -2.175871         1.134481
 H         2.010961        -0.158298         2.652187
 H         3.584795        -0.595854         2.319465
 H         3.473027         2.518054         0.410235
 H         2.664056         0.754718        -2.461270
 H         2.328810        -2.066027        -1.079409
 H         3.860430        -2.063620        -0.130784
