19
Iteration:  3334
 C        -0.025855         0.657768        -0.392085
 C         1.371987         0.118744         0.160009
 C         1.840175        -1.236246         0.914937
 C         2.621965        -0.440762         1.910041
 C         2.643621         0.650532         0.767813
 O         3.197251         1.932714         0.966234
 C         2.760262        -0.056401        -0.618393
 O         3.240682         0.692415        -1.683306
 C         2.793510        -1.668218        -0.202470
 H        -0.147066         1.644104        -0.004269
 H         0.092777         0.757940        -1.471956
 H        -0.743749        -0.074701        -0.151721
 H         0.997253        -1.922987         1.331522
 H         2.056600        -0.318771         2.826199
 H         3.640119        -1.017398         2.093427
 H         3.472311         2.188231         0.053590
 H         2.874310         0.324778        -2.570818
 H         2.345943        -2.275253        -1.069964
 H         3.668087        -2.288215         0.059550
