19
Iteration:  1576charge 0 multiplicity 1
 C         0.051481         0.693924        -0.235728
 C         1.261945        -0.009525         0.004910
 C         1.884309        -1.351380         0.774873
 C         2.572587        -0.457596         1.836485
 C         2.548739         0.580303         0.816501
 O         3.007317         1.909392         1.101235
 C         2.707974        -0.041791        -0.602957
 O         3.426028         0.758914        -1.611843
 C         2.938156        -1.512431        -0.383122
 H         0.125299         1.454309        -1.020898
 H        -0.695528        -0.056650        -0.650185
 H        -0.325871         1.293122         0.618367
 H         1.328485        -2.270950         1.121003
 H         2.062094        -0.142152         2.802021
 H         3.460424        -0.935333         2.167768
 H         3.663560         2.157374         0.367902
 H         2.896605         0.483984        -2.478303
 H         2.561773        -2.105404        -1.229624
 H         3.734864        -2.069360         0.039314
