19
Iteration:   942
 C         0.082283         0.723589        -0.409484
 C         1.356094         0.050762         0.075900
 C         1.871396        -1.490940         0.596611
 C         2.655648        -0.683357         1.789967
 C         2.596660         0.611829         0.891910
 O         2.785882         1.915715         1.195906
 C         2.792812         0.070466        -0.485585
 O         3.393507         0.824238        -1.428268
 C         2.917876        -1.465362        -0.491691
 H        -0.573771        -0.128286        -0.589616
 H        -0.384161         1.449014         0.323864
 H         0.098893         1.268555        -1.372359
 H         1.197228        -2.342423         0.698503
 H         1.939966        -0.609497         2.661921
 H         3.732088        -1.028852         2.105622
 H         3.378172         2.319468         0.559835
 H         3.213458         0.563031        -2.299873
 H         2.605795        -1.930263        -1.480710
 H         3.970071        -1.881981        -0.386947
