19
Iteration:  4239charge 0 multiplicity 1
 C         0.116264         0.771929        -0.231093
 C         1.444489         0.113865         0.148350
 C         1.788481        -1.237917         1.041930
 C         2.656045        -0.250336         2.004676
 C         2.701757         0.624720         0.766084
 O         3.124054         1.996365         0.606995
 C         2.797157        -0.166565        -0.550147
 O         3.185619         0.340106        -1.793943
 C         2.699017        -1.616956        -0.132469
 H         0.265532         1.745718        -0.818832
 H        -0.341483         0.136373        -0.913427
 H        -0.617678         1.104454         0.551428
 H         1.117538        -2.012544         1.504107
 H         1.916996         0.339704         2.614434
 H         3.590159        -0.643115         2.461270
 H         4.007499         1.865252         0.126156
 H         2.460388         0.914193        -2.305032
 H         2.001755        -2.103756        -0.734262
 H         3.537841        -2.288550         0.021062
