19
Iteration:  3803charge 0 multiplicity 1
 C         0.095554         0.787622        -0.471664
 C         1.364702        -0.004363         0.133244
 C         1.847841        -1.238254         0.997490
 C         2.721997        -0.345228         1.905146
 C         2.606091         0.624556         0.762547
 O         3.193525         1.933871         0.895291
 C         2.721139        -0.164562        -0.525807
 O         3.162089         0.588038        -1.650490
 C         2.712590        -1.581700        -0.213561
 H        -0.479840         0.168016        -1.168606
 H        -0.559599         0.925972         0.345028
 H         0.439588         1.717942        -0.973788
 H         1.233881        -2.004388         1.453782
 H         2.250226        -0.049762         2.867030
 H         3.738191        -0.817381         2.119682
 H         3.551155         2.164982         0.014355
 H         2.783643         0.249770        -2.433643
 H         2.195205        -2.184914        -0.978676
 H         3.645215        -2.141514        -0.110938
