19
Iteration:  4335charge 0 multiplicity 1
 C         0.034193         0.707070        -0.235326
 C         1.438820         0.152340         0.192095
 C         1.833375        -1.128272         1.053072
 C         2.653699        -0.266017         1.979871
 C         2.778352         0.723277         0.778288
 O         3.265867         2.005879         0.617203
 C         2.641934        -0.218399        -0.521547
 O         3.105940         0.341707        -1.772670
 C         2.655356        -1.622129        -0.217475
 H        -0.590121         1.288552         0.435248
 H         0.285806         1.339554        -1.152129
 H        -0.656670        -0.076089        -0.560895
 H         1.075492        -1.878503         1.448180
 H         2.000931         0.216314         2.656070
 H         3.508763        -0.597739         2.473239
 H         3.901191         1.794086        -0.068637
 H         3.890783        -0.051961        -2.132411
 H         1.946990        -2.254904        -0.897670
 H         3.584831        -2.198403         0.024904
