19
Iteration:   873
 C         0.047896         0.650471        -0.374537
 C         1.400437         0.013118         0.005715
 C         1.924960        -1.379296         0.585272
 C         2.438768        -0.686861         1.842854
 C         2.634363         0.498287         0.936570
 O         2.902696         1.896418         1.173002
 C         2.789083         0.011764        -0.547114
 O         3.354214         0.976941        -1.441363
 C         3.023589        -1.475807        -0.484610
 H        -0.674015        -0.021047         0.184650
 H         0.183473         1.729894        -0.090044
 H        -0.209173         0.625083        -1.428489
 H         1.112213        -2.015687         0.901582
 H         1.449180        -0.429362         2.423651
 H         3.360553        -1.058998         2.416536
 H         3.527400         2.292902         0.429595
 H         2.773200         0.799771        -2.309417
 H         2.559620        -2.071114        -1.399115
 H         4.027674        -2.082092        -0.295833
