19
Iteration:   927charge 0 multiplicity 1
 C         0.028727         0.738435        -0.406149
 C         1.413653         0.078156         0.038908
 C         1.828032        -1.399720         0.593929
 C         2.603764        -0.746914         1.843141
 C         2.599875         0.472286         0.901071
 O         2.784949         1.961202         1.240668
 C         2.819366        -0.028647        -0.572120
 O         3.387777         0.889615        -1.497073
 C         3.037257        -1.465404        -0.452707
 H        -0.841690        -0.004051        -0.375286
 H        -0.261469         1.524137         0.333724
 H         0.167509         1.149107        -1.397515
 H         1.203137        -2.286749         0.766004
 H         2.144417        -0.415975         2.831460
 H         3.543701        -1.229034         2.033309
 H         3.220196         2.340321         0.361534
 H         2.799128         0.680684        -2.352699
 H         2.642797        -1.932526        -1.443479
 H         3.975780        -1.895568         0.101693
