19
Iteration:  3437charge 0 multiplicity 1
 C        -0.013309         0.748593        -0.258679
 C         1.355814         0.047179         0.027292
 C         1.856806        -1.263515         0.894874
 C         2.600821        -0.474151         1.936610
 C         2.611397         0.614739         0.764922
 O         3.059987         2.023332         0.981210
 C         2.728686        -0.082625        -0.616279
 O         3.374301         0.608663        -1.730229
 C         2.828505        -1.650097        -0.296122
 H         0.076835         1.527931        -1.016558
 H        -0.767951         0.031488        -0.474556
 H        -0.274875         1.326734         0.608233
 H         1.261738        -2.091227         1.058728
 H         1.862774        -0.223721         2.800269
 H         3.442540        -0.827517         2.551629
 H         3.967550         2.045394         0.691638
 H         2.937765         0.374840        -2.558471
 H         2.333535        -2.294022        -0.994586
 H         3.914759        -1.944793        -0.024180
