19
Iteration:  2640
 C         0.123997         0.680873        -0.325171
 C         1.420752         0.163049         0.154631
 C         1.782662        -1.160712         0.993703
 C         2.777394        -0.238465         1.900961
 C         2.724066         0.632242         0.724693
 O         3.132434         1.974313         0.743919
 C         2.753110        -0.237238        -0.564187
 O         3.113715         0.495566        -1.711917
 C         2.680110        -1.691715        -0.073984
 H         0.043884         0.670540        -1.424040
 H        -0.821525         0.342776         0.051209
 H         0.067113         1.745861         0.027041
 H         1.065412        -1.743480         1.604389
 H         2.423596        -0.052914         2.897733
 H         3.783381        -0.726552         2.132048
 H         3.490994         2.167985        -0.152406
 H         2.631093         0.192253        -2.511911
 H         2.004015        -2.199210        -0.791166
 H         3.557297        -2.376289         0.018900
