19
Iteration:  3022charge 0 multiplicity 1
 C         0.171854         0.767473        -0.226124
 C         1.441456         0.067935         0.101072
 C         1.816798        -1.191716         0.927602
 C         2.609299        -0.460508         1.954626
 C         2.706165         0.711238         0.769152
 O         3.012048         2.091883         0.901416
 C         2.763398        -0.196279        -0.673704
 O         3.201812         0.438623        -1.807990
 C         2.764763        -1.619870        -0.188575
 H         0.308047         1.537367        -0.978706
 H        -0.593449         0.113970        -0.558948
 H        -0.283027         1.123536         0.717309
 H         1.225609        -2.018101         1.274049
 H         1.870464        -0.194867         2.814716
 H         3.536652        -0.960868         2.354546
 H         3.852461         2.310848         0.276488
 H         2.637529         0.186688        -2.547582
 H         2.294960        -2.298351        -0.986939
 H         3.769811        -1.910325         0.258726
