19
Iteration:  1401
 C         0.035877         0.691838        -0.343467
 C         1.325979        -0.026237         0.114822
 C         1.836406        -1.358850         0.745137
 C         2.658634        -0.516818         1.859168
 C         2.578561         0.523805         0.844407
 O         2.915828         1.855053         1.013652
 C         2.735040         0.025037        -0.526467
 O         3.453163         0.778505        -1.471889
 C         2.876334        -1.487865        -0.468632
 H        -0.842504         0.030846        -0.236261
 H        -0.202190         1.614642         0.250542
 H         0.008067         1.106453        -1.392413
 H         1.152457        -2.179943         0.989320
 H         1.982017        -0.171591         2.702142
 H         3.697046        -0.627425         2.087722
 H         3.594467         2.099629         0.381331
 H         2.953329         0.760193        -2.256457
 H         2.566427        -1.821512        -1.517569
 H         3.951262        -1.847908        -0.269210
