19
Iteration:  1281
 C         0.088099         0.671951        -0.406536
 C         1.447133         0.045919         0.041674
 C         1.806992        -1.365956         0.726673
 C         2.597671        -0.538791         1.903202
 C         2.693035         0.543183         0.846559
 O         2.875533         1.887864         1.168030
 C         2.844675        -0.017332        -0.601378
 O         3.305974         0.879239        -1.536420
 C         2.885843        -1.568317        -0.455514
 H        -0.393322         1.366627         0.305401
 H         0.187780         1.302334        -1.324171
 H        -0.718777        -0.120044        -0.527234
 H         1.182459        -2.250562         0.886134
 H         2.010241        -0.326805         2.926981
 H         3.626148        -1.060110         2.194662
 H         3.452777         2.278465         0.498309
 H         2.642795         0.869517        -2.212877
 H         2.308331        -2.129235        -1.164919
 H         3.765125        -2.130311        -0.240123
