19
Iteration:   897
 C         0.170570         0.656275        -0.319358
 C         1.426132        -0.028567        -0.035016
 C         1.859867        -1.451094         0.619796
 C         2.454322        -0.522196         1.832567
 C         2.569522         0.513660         0.832337
 O         2.858398         1.826157         1.270559
 C         2.842119        -0.014294        -0.597360
 O         3.338560         0.950960        -1.490919
 C         2.975726        -1.453519        -0.456083
 H        -0.608232        -0.131835        -0.105383
 H         0.219100         1.658754         0.245291
 H         0.072827         0.946170        -1.357820
 H         1.270497        -2.376764         0.736377
 H         1.607296        -0.076857         2.523111
 H         3.479075        -0.845118         2.336060
 H         3.298212         2.264787         0.530566
 H         2.679930         1.103820        -2.119418
 H         2.664789        -1.959291        -1.463660
 H         3.911632        -2.103956        -0.214054
