19
Iteration:  1925
 C         0.093286         0.633999        -0.340676
 C         1.400859         0.077925         0.151720
 C         1.759319        -1.297344         0.876897
 C         2.646001        -0.505270         1.848585
 C         2.610070         0.676726         0.837736
 O         3.105240         1.947940         0.846398
 C         2.702038        -0.071684        -0.518461
 O         3.271739         0.685032        -1.561588
 C         2.835563        -1.573730        -0.322052
 H         0.351903         1.562086        -0.880760
 H        -0.549289        -0.169983        -0.903888
 H        -0.505153         0.971132         0.483509
 H         1.124617        -2.023230         1.311639
 H         2.043982        -0.119102         2.607148
 H         3.566160        -0.873579         2.206273
 H         3.534062         2.311264        -0.024826
 H         2.891338         0.325687        -2.476004
 H         2.420187        -2.119999        -1.163849
 H         3.852152        -1.960617        -0.020831
