19
Iteration:  1202charge 0 multiplicity 1
 C         0.071232         0.581137        -0.337322
 C         1.373357         0.002232         0.033550
 C         1.767961        -1.373679         0.721503
 C         2.546557        -0.510581         1.789812
 C         2.596082         0.580997         0.833500
 O         2.995948         1.863471         1.141305
 C         2.738983        -0.012222        -0.628915
 O         3.348950         0.893867        -1.432036
 C         2.990988        -1.528208        -0.464739
 H         0.062128         1.672759        -0.004711
 H        -0.245998         0.609239        -1.468081
 H        -0.753558         0.170621         0.222011
 H         1.009245        -2.090765         0.882252
 H         1.883265        -0.141572         2.767173
 H         3.569703        -0.967884         2.206216
 H         3.752998         2.082379         0.652352
 H         2.960180         0.892286        -2.282575
 H         2.597210        -2.009661        -1.364654
 H         3.950918        -1.893352        -0.222051
