19
Iteration:  2255
 C         0.125999         0.780228        -0.254893
 C         1.345186         0.046989         0.139019
 C         1.794139        -1.275621         1.004527
 C         2.745043        -0.325097         1.902941
 C         2.677715         0.613373         0.689386
 O         2.974230         1.934944         0.742282
 C         2.725711        -0.160041        -0.536197
 O         3.280941         0.597740        -1.591964
 C         2.771680        -1.644281        -0.251614
 H         0.442136         1.423528        -1.101055
 H        -0.665445         0.040084        -0.689853
 H        -0.351349         1.398500         0.618232
 H         1.055507        -2.040597         1.408251
 H         2.264559         0.204539         2.719936
 H         3.753976        -0.665373         2.175631
 H         3.547710         2.165339        -0.056528
 H         3.014355         0.153194        -2.439836
 H         2.166220        -2.080412        -1.092847
 H         3.787349        -2.234398        -0.168328
