19
Iteration:  2946charge 0 multiplicity 1
 C         0.065564         0.747598        -0.202201
 C         1.350881         0.132266         0.193427
 C         1.757278        -1.194078         0.930723
 C         2.802526        -0.393291         1.801078
 C         2.699672         0.644355         0.734710
 O         2.967525         1.928952         0.662800
 C         2.770189        -0.148390        -0.525027
 O         3.337224         0.502086        -1.594490
 C         2.715999        -1.611088        -0.201884
 H         0.117852         1.685246         0.350826
 H        -0.073354         0.969749        -1.256094
 H        -0.761994         0.077381         0.101997
 H         0.979161        -1.783733         1.369533
 H         2.337634         0.130006         2.684891
 H         3.769666        -0.789193         2.140171
 H         3.735819         2.059119         0.171871
 H         2.744875         0.291020        -2.404899
 H         2.089341        -2.117672        -1.007009
 H         3.567493        -2.234008         0.075313
