19
Iteration:  1669
 C         0.134270         0.647490        -0.419434
 C         1.360360         0.029402         0.134545
 C         1.805884        -1.314900         0.831226
 C         2.687849        -0.540919         1.769954
 C         2.602239         0.641285         0.873377
 O         2.990081         1.913271         0.933820
 C         2.690576         0.033131        -0.561536
 O         3.277003         0.762509        -1.513789
 C         2.864063        -1.563561        -0.290255
 H        -0.268312         1.445635         0.232476
 H         0.264949         1.046449        -1.402501
 H        -0.739944         0.001576        -0.329189
 H         1.075414        -2.102339         1.077502
 H         2.336489        -0.304153         2.692098
 H         3.580204        -1.132785         1.890410
 H         3.810163         2.020416         0.558351
 H         2.914915         0.674393        -2.330297
 H         2.498711        -2.225524        -1.132376
 H         3.832761        -2.095901         0.069557
