19
Iteration:  1426
 C         0.097683         0.670983        -0.300132
 C         1.448475         0.035375         0.076725
 C         1.904989        -1.356923         0.757527
 C         2.499035        -0.607852         1.867742
 C         2.573890         0.585502         0.836012
 O         2.981368         1.964463         1.059331
 C         2.734691        -0.050137        -0.649737
 O         3.315924         0.859706        -1.518533
 C         2.897245        -1.596746        -0.388361
 H        -0.631552        -0.116560        -0.357447
 H        -0.299912         1.425670         0.311853
 H         0.098550         1.227602        -1.293537
 H         1.168847        -2.204110         0.823340
 H         1.709858        -0.242470         2.518213
 H         3.533123        -0.861530         2.312007
 H         3.751568         2.171465         0.586396
 H         3.163851         0.658002        -2.384643
 H         2.365741        -2.058002        -1.181532
 H         3.837457        -2.028151        -0.279996
