19
Iteration:  1387
 C         0.000942         0.699575        -0.325322
 C         1.368134         0.142471         0.056353
 C         1.845664        -1.376308         0.706118
 C         2.701936        -0.598343         1.815780
 C         2.529797         0.607602         0.814633
 O         2.894043         1.918142         1.044108
 C         2.798247        -0.046947        -0.553305
 O         3.446196         0.763873        -1.434544
 C         2.896744        -1.522857        -0.396438
 H        -0.761758        -0.096925        -0.068249
 H        -0.276652         1.653505         0.252456
 H        -0.029309         0.867230        -1.376816
 H         1.158327        -2.167484         0.912419
 H         2.206701        -0.486340         2.780509
 H         3.606881        -1.110657         2.005247
 H         3.188714         2.229400         0.106771
 H         2.890814         0.894023        -2.330945
 H         2.314509        -2.121909        -1.217139
 H         3.890915        -2.113471        -0.124528
