19
Iteration:  1989charge 0 multiplicity 1
 C         0.119263         0.591538        -0.248980
 C         1.398959         0.112195         0.143873
 C         1.652179        -1.315058         0.813822
 C         2.672249        -0.459851         1.896301
 C         2.659835         0.621737         0.788246
 O         3.057198         2.061474         0.876335
 C         2.777950        -0.075425        -0.553602
 O         3.357067         0.629208        -1.637543
 C         2.744153        -1.615280        -0.290783
 H        -0.145650         1.462219         0.360040
 H         0.095662         0.856977        -1.304850
 H        -0.697479        -0.095695        -0.029807
 H         1.048520        -1.980855         1.382351
 H         2.083719        -0.085461         2.706316
 H         3.772849        -0.718856         2.374384
 H         3.464493         2.173660        -0.080730
 H         2.703826         0.492602        -2.424168
 H         2.415488        -2.047445        -1.199843
 H         3.665380        -2.107096        -0.095084
