19
Iteration:  4904charge 0 multiplicity 1
 C         0.054074         0.788383        -0.194910
 C         1.439191         0.199214         0.191506
 C         1.823096        -0.961080         1.206749
 C         2.840680         0.039985         1.960910
 C         2.820466         0.683107         0.661698
 O         3.320301         1.926500         0.311065
 C         2.690569        -0.284067        -0.530285
 O         2.881622         0.114932        -1.840174
 C         2.578181        -1.777196         0.155928
 H        -0.788831         0.524137         0.391424
 H         0.164920         1.935395        -0.220108
 H        -0.210303         0.641256        -1.263958
 H         1.009108        -1.531763         1.675569
 H         2.216491         0.524903         2.729971
 H         3.731431        -0.538729         2.391818
 H         4.143040         1.883030        -0.212919
 H         3.448925        -0.492147        -2.228730
 H         1.922159        -2.370566        -0.561649
 H         3.498998        -2.192077         0.419484
