19
Iteration:  3759charge 0 multiplicity 1
 C         0.143262         0.653562        -0.278668
 C         1.513429         0.177298         0.079324
 C         1.753085        -1.131135         0.933112
 C         2.652658        -0.401140         1.940737
 C         2.681750         0.633468         0.829677
 O         3.037104         2.007001         0.940877
 C         2.756537        -0.119846        -0.612033
 O         3.268970         0.471518        -1.738903
 C         2.720017        -1.648681        -0.300641
 H        -0.669074        -0.037152        -0.133117
 H        -0.030681         1.493922         0.319107
 H         0.156642         1.015075        -1.320480
 H         1.001656        -1.881585         1.218046
 H         2.172997        -0.095969         2.890654
 H         3.612041        -0.957431         2.190793
 H         3.250868         2.302396         0.057409
 H         2.574820         0.387173        -2.313562
 H         2.123727        -2.256713        -0.958859
 H         3.593804        -2.270526        -0.184959
