19
Iteration:  4783
 C         0.170296         0.849193        -0.195811
 C         1.364222         0.108496         0.214727
 C         1.810952        -1.051448         1.216775
 C         2.737718        -0.080151         1.954283
 C         2.761006         0.703945         0.627290
 O         3.332005         1.945010         0.386441
 C         2.716771        -0.272719        -0.540468
 O         2.939759        -0.007283        -1.908836
 C         2.638399        -1.662687         0.053752
 H         0.298177         1.212726        -1.189853
 H        -0.892691         0.373899        -0.160585
 H        -0.055538         1.761850         0.404457
 H         0.981551        -1.455908         1.751213
 H         2.150364         0.573770         2.593992
 H         3.593210        -0.431382         2.536844
 H         3.135877         2.741335         0.936110
 H         3.715675         0.728544        -1.962746
 H         1.977164        -2.274716        -0.702435
 H         3.682338        -2.083785         0.249721
