19
Iteration:  3695
 C         0.016649         0.768548        -0.161401
 C         1.336631         0.104474         0.055830
 C         1.787618        -1.249384         0.862966
 C         2.582249        -0.468219         1.896740
 C         2.622209         0.594966         0.797530
 O         3.089858         1.931948         0.688677
 C         2.735205        -0.148099        -0.529588
 O         3.375246         0.673334        -1.614336
 C         2.809243        -1.623036        -0.208746
 H        -0.657314         0.639173         0.717043
 H         0.238203         1.833215        -0.330225
 H        -0.489712         0.436112        -1.028039
 H         1.143965        -1.982106         1.273160
 H         2.281062        -0.088606         2.844502
 H         3.616726        -0.814138         2.194148
 H         3.682742         1.785001        -0.084567
 H         3.238665         0.220206        -2.406443
 H         2.420876        -2.258443        -1.089990
 H         3.730669        -1.887534         0.249776
