19
Iteration:  3096
 C         0.074802         0.594365        -0.294647
 C         1.343999         0.115041         0.235903
 C         1.747634        -1.160102         0.858590
 C         2.716373        -0.368449         1.876743
 C         2.726187         0.641525         0.740648
 O         3.186633         1.941852         0.718826
 C         2.720824        -0.087906        -0.501021
 O         3.262899         0.633494        -1.503972
 C         2.709136        -1.654520        -0.276224
 H         0.016472         0.353859        -1.441220
 H        -0.817121        -0.095472         0.023613
 H        -0.303193         1.636462        -0.153936
 H         0.957819        -1.865514         1.393535
 H         2.045051         0.041079         2.657792
 H         3.645343        -0.860539         2.064770
 H         3.359486         2.035711        -0.343729
 H         2.909612         0.328892        -2.277810
 H         2.166859        -2.241453        -0.929387
 H         3.695477        -2.174945        -0.010780
