19
Iteration:  1812charge 0 multiplicity 1
 C         0.151535         0.673981        -0.281354
 C         1.401599         0.053159         0.132421
 C         1.819584        -1.322504         0.874815
 C         2.631518        -0.404356         1.887469
 C         2.713296         0.613284         0.775677
 O         2.905326         1.948076         0.870410
 C         2.775882        -0.152240        -0.592675
 O         3.323041         0.759699        -1.526384
 C         2.764513        -1.634469        -0.418377
 H        -0.598124        -0.082951        -0.667843
 H        -0.283094         1.198223         0.606887
 H         0.189795         1.488475        -1.139134
 H         1.087387        -2.149025         1.269993
 H         1.923028        -0.236350         2.663050
 H         3.613928        -0.694566         2.296487
 H         3.745197         2.260988         0.664340
 H         2.964661         0.608506        -2.346834
 H         2.188278        -2.231318        -1.109853
 H         3.746075        -2.090026        -0.182457
