19
Iteration:  2869charge 0 multiplicity 1
 C        -0.011289         0.625723        -0.255305
 C         1.355973         0.123016         0.132799
 C         1.770594        -1.181212         0.924660
 C         2.656314        -0.301360         1.907213
 C         2.736004         0.670623         0.729719
 O         3.324448         1.963207         0.843007
 C         2.639160        -0.137226        -0.584832
 O         3.155288         0.539070        -1.777040
 C         2.792200        -1.660941        -0.096021
 H        -0.838369         0.383780         0.421317
 H         0.149007         1.648855        -0.555909
 H        -0.193428         0.115224        -1.235654
 H         0.979995        -1.755920         1.444568
 H         2.088988         0.017024         2.799289
 H         3.598928        -0.777239         2.181082
 H         3.794143         2.073383        -0.081046
 H         2.617439         0.342084        -2.580240
 H         2.478297        -2.493904        -0.759405
 H         3.712937        -1.934442         0.303209
