19
Iteration:  1606
 C         0.055387         0.639746        -0.222470
 C         1.414508         0.118262         0.076294
 C         1.791497        -1.221094         0.675978
 C         2.578668        -0.529935         1.829009
 C         2.679231         0.624266         0.805394
 O         2.970611         1.921101         1.081479
 C         2.773056        -0.057313        -0.567146
 O         3.352036         0.682045        -1.614904
 C         2.937516        -1.563870        -0.360091
 H         0.155269         1.713625        -0.407383
 H        -0.367174         0.073871        -1.137130
 H        -0.658839         0.441752         0.537599
 H         0.996373        -1.994044         0.942941
 H         1.907442        -0.151846         2.709587
 H         3.496483        -1.173890         2.133649
 H         2.800122         2.323874         0.274031
 H         2.770710         0.497565        -2.278872
 H         2.567512        -2.124782        -1.152919
 H         3.747097        -2.056486         0.168147
