19
Iteration:  2244
 C         0.111196         0.779884        -0.325476
 C         1.374916         0.009558         0.217235
 C         1.854453        -1.249592         0.963440
 C         2.753486        -0.322067         1.844247
 C         2.656167         0.636460         0.766295
 O         2.996212         1.984923         0.748469
 C         2.645462        -0.167035        -0.597113
 O         3.285578         0.542466        -1.536411
 C         2.752719        -1.608436        -0.306817
 H         0.308471         1.387811        -1.233031
 H        -0.819620         0.096115        -0.483032
 H        -0.239957         1.601340         0.474096
 H         1.442963        -2.120698         1.550240
 H         2.110533        -0.142299         2.691311
 H         3.663905        -0.811395         2.217395
 H         3.668926         2.130810        -0.059994
 H         3.073972         0.301559        -2.375840
 H         2.107700        -2.318505        -0.866945
 H         3.717401        -2.191333         0.044613
