19
Iteration:  1830
 C         0.152761         0.645620        -0.246127
 C         1.427130         0.076514         0.107042
 C         1.763468        -1.285210         0.831635
 C         2.691256        -0.536129         1.843571
 C         2.632153         0.620800         0.784841
 O         2.910076         2.026111         0.893323
 C         2.734196        -0.022594        -0.562044
 O         3.321231         0.668174        -1.608271
 C         2.821915        -1.611362        -0.265225
 H        -0.260077         0.089885        -1.071865
 H        -0.469414         0.918895         0.565396
 H         0.453968         1.519484        -0.825735
 H         1.044049        -2.038997         1.020914
 H         2.040294        -0.165481         2.771218
 H         3.598456        -1.183995         2.113222
 H         3.739206         2.037133         0.488098
 H         2.775422         0.718657        -2.327535
 H         2.344652        -2.124733        -1.144913
 H         3.681536        -2.209057         0.023086
