19
Iteration:   282
 C         0.106910         0.602458        -0.547619
 C         1.354907        -0.025178        -0.015810
 C         1.920321        -1.507799         0.457439
 C         2.480751        -0.802802         1.754609
 C         2.439359         0.455323         0.968325
 O         2.874690         1.732449         1.451356
 C         2.744448         0.170045        -0.523291
 O         3.379230         1.171090        -1.232414
 C         3.096768        -1.326148        -0.671982
 H        -0.831245        -0.025892        -0.454156
 H        -0.140181         1.623751        -0.173655
 H         0.360936         0.726255        -1.593567
 H         1.311900        -2.508434         0.569666
 H         1.742432        -0.901988         2.552802
 H         3.393468        -1.141088         2.219531
 H         3.431748         2.229331         0.815942
 H         3.265682         1.246271        -2.259844
 H         2.883371        -1.738218        -1.633754
 H         4.117354        -1.435920        -0.480759
