19
Iteration:  3417charge 0 multiplicity 1
 C         0.168308         0.710017        -0.295715
 C         1.445566         0.032963         0.147670
 C         1.753669        -1.277507         0.837433
 C         2.647483        -0.367765         1.802042
 C         2.604965         0.624512         0.770776
 O         2.979642         1.923983         0.975517
 C         2.767955        -0.096879        -0.587142
 O         3.305033         0.564887        -1.639915
 C         2.802499        -1.577678        -0.297244
 H         0.360956         1.640023        -0.865927
 H        -0.504263         0.053337        -0.849386
 H        -0.432637         1.248304         0.522139
 H         1.112367        -2.032495         1.299566
 H         2.115507         0.039977         2.694354
 H         3.562469        -0.771385         2.184687
 H         3.671879         2.137447         0.395114
 H         2.534912         0.718267        -2.116436
 H         2.266698        -2.096589        -1.091731
 H         3.799593        -2.021336         0.017857
