19
Iteration:  3671
 C         0.133357         0.695224        -0.190274
 C         1.390134         0.102274         0.137814
 C         1.774454        -1.262948         0.860277
 C         2.612745        -0.396557         1.881369
 C         2.652933         0.621488         0.705948
 O         3.070693         1.986921         0.773651
 C         2.717637        -0.184317        -0.579010
 O         3.380622         0.609988        -1.510781
 C         2.729363        -1.615249        -0.335588
 H        -0.247908         1.056096         0.740462
 H         0.338640         1.504301        -0.817173
 H        -0.629768         0.074339        -0.639177
 H         1.157174        -2.137518         1.259291
 H         1.936165         0.061510         2.636674
 H         3.428120        -0.688048         2.595213
 H         3.286994         2.088716        -0.154910
 H         2.974061         0.516464        -2.384796
 H         2.097159        -2.143334        -1.060724
 H         3.644451        -2.086316        -0.054102
