19
Iteration:  2839charge 0 multiplicity 1
 C         0.129658         0.666918        -0.359726
 C         1.363799         0.067751         0.179601
 C         1.869150        -1.261348         1.032175
 C         2.693108        -0.297470         1.935398
 C         2.731154         0.646705         0.787920
 O         3.197437         1.995619         0.705228
 C         2.658362        -0.094943        -0.503672
 O         3.173367         0.473277        -1.657692
 C         2.688725        -1.623512        -0.231601
 H        -0.907462         0.307079         0.016082
 H         0.128652         1.761773        -0.031775
 H         0.079307         0.508541        -1.473221
 H         1.165025        -1.723725         1.607225
 H         2.058792         0.068476         2.673003
 H         3.684036        -0.720153         2.205309
 H         3.629961         2.084542        -0.135227
 H         2.320853         0.418156        -2.300149
 H         1.917073        -1.972318        -0.981268
 H         3.717202        -2.172290        -0.325669
