19
Iteration:  1345
 C         0.098963         0.636095        -0.305544
 C         1.387068         0.071318         0.038644
 C         1.892577        -1.319539         0.737890
 C         2.500109        -0.507052         1.830407
 C         2.667948         0.554001         0.850598
 O         2.894980         1.832501         1.090888
 C         2.848918        -0.023180        -0.546596
 O         3.363109         0.820438        -1.527850
 C         2.832198        -1.487477        -0.462263
 H        -0.691524         0.158934         0.343596
 H         0.056893         1.752892        -0.079623
 H        -0.223120         0.337834        -1.291811
 H         1.350287        -2.198882         0.970832
 H         1.870259        -0.139047         2.692974
 H         3.443477        -0.819184         2.272453
 H         3.504810         2.219369         0.511990
 H         3.099776         0.495472        -2.324281
 H         2.256043        -1.976532        -1.306083
 H         3.797671        -2.048008        -0.413473
