19
Iteration:   304charge 0 multiplicity 1
 C         0.094380         0.574284        -0.576183
 C         1.375524         0.055842         0.024199
 C         1.936250        -1.371940         0.400123
 C         2.495519        -0.860061         1.740696
 C         2.447884         0.442346         1.018142
 O         2.859265         1.704550         1.425938
 C         2.825738         0.193298        -0.448620
 O         3.365189         1.138940        -1.310961
 C         3.083610        -1.326376        -0.580209
 H        -0.583150        -0.297006        -0.849107
 H        -0.460329         1.228698         0.147153
 H         0.271135         1.149877        -1.480650
 H         1.267982        -2.292955         0.249948
 H         1.825511        -0.998991         2.579542
 H         3.395472        -1.357000         2.034895
 H         3.080758         2.363526         0.670463
 H         3.083554         1.035379        -2.170489
 H         2.780953        -1.717228        -1.524669
 H         3.965716        -1.773065        -0.309204
