19
Iteration:  2437
 C         0.112324         0.713220        -0.253964
 C         1.426300         0.141777         0.175294
 C         1.783884        -1.162436         0.919740
 C         2.629234        -0.297351         2.001856
 C         2.626684         0.662575         0.791448
 O         3.168086         1.997624         0.800647
 C         2.746602        -0.203954        -0.603210
 O         3.137627         0.435425        -1.832440
 C         2.828390        -1.649947        -0.157091
 H        -0.596286         0.409155         0.540208
 H         0.094207         1.826978        -0.382017
 H        -0.125866         0.390515        -1.249514
 H         1.075125        -1.974460         1.274021
 H         2.153071         0.056117         3.000508
 H         3.540924        -0.878800         2.237155
 H         3.738002         2.053298         0.013733
 H         2.413364         0.365514        -2.591054
 H         2.449972        -2.469260        -0.851229
 H         3.852224        -1.838986         0.116826
