19
Iteration:  1529
 C         0.099928         0.634912        -0.307073
 C         1.439009         0.076473         0.138456
 C         1.779622        -1.269605         0.715544
 C         2.621431        -0.643085         1.847023
 C         2.686533         0.606322         0.889143
 O         2.881173         1.974124         0.946715
 C         2.842785        -0.033713        -0.583105
 O         3.326102         0.872057        -1.526133
 C         2.829787        -1.659840        -0.347751
 H         0.118338         0.847472        -1.389647
 H        -0.758009        -0.084625        -0.164091
 H        -0.044970         1.597595         0.034297
 H         0.881661        -1.862783         0.927476
 H         2.068132        -0.588924         2.835721
 H         3.546321        -1.177070         2.185517
 H         3.721296         2.260878         0.403245
 H         2.863183         0.580606        -2.428805
 H         2.315939        -2.149256        -1.081109
 H         3.709467        -2.173901        -0.176423
