19
Iteration:  2037charge 0 multiplicity 1
 C         0.086981         0.773757        -0.219413
 C         1.337856        -0.021877         0.098953
 C         1.848939        -1.304712         0.870245
 C         2.571587        -0.348822         1.846286
 C         2.633432         0.645104         0.745465
 O         3.080248         1.950417         0.946197
 C         2.727013        -0.085529        -0.629075
 O         3.253340         0.603839        -1.683968
 C         2.847075        -1.625565        -0.246567
 H        -0.651687         0.600400         0.621694
 H         0.335033         1.827744        -0.698253
 H        -0.573383         0.306677        -0.962163
 H         1.084617        -2.095025         1.168022
 H         2.169734         0.130219         2.826074
 H         3.653535        -0.661848         2.237183
 H         3.816643         2.109336         0.270024
 H         2.927352         0.144530        -2.375863
 H         2.742495        -2.431669        -0.977336
 H         3.845903        -1.870324         0.196020
