19
Iteration:   209charge 0 multiplicity 1
 C         0.002404         0.674829        -0.406321
 C         1.352712        -0.033702        -0.024031
 C         1.977631        -1.502570         0.388345
 C         2.489746        -0.827928         1.709780
 C         2.466251         0.426542         0.961373
 O         2.638310         1.719931         1.478733
 C         2.865173         0.169066        -0.499517
 O         3.593578         1.080262        -1.299398
 C         3.091899        -1.240363        -0.715746
 H        -0.361593         1.360192         0.390277
 H         0.053986         1.140418        -1.407657
 H        -0.750606        -0.141100        -0.474401
 H         1.454727        -2.288351         0.391368
 H         1.772385        -0.745053         2.477800
 H         3.394321        -1.277545         2.243828
 H         3.205416         2.330865         0.966891
 H         2.904100         1.304175        -2.114377
 H         2.838733        -1.437861        -1.767981
 H         4.154074        -1.722515        -0.422020
