19
Iteration:  1216charge 0 multiplicity 1
 C         0.062533         0.601481        -0.369906
 C         1.358745         0.034268         0.047190
 C         1.789485        -1.321339         0.612424
 C         2.682576        -0.603709         1.830697
 C         2.601191         0.567093         0.825634
 O         2.961515         1.895523         1.139342
 C         2.717427        -0.029270        -0.599386
 O         3.357235         0.941315        -1.451591
 C         2.856535        -1.539963        -0.353490
 H         0.032857         1.592977         0.044462
 H         0.030161         0.628610        -1.458110
 H        -0.836228        -0.048585        -0.071899
 H         1.128166        -2.138435         0.857848
 H         2.059459        -0.513374         2.762488
 H         3.711772        -0.992804         2.015632
 H         3.686553         2.171849         0.451167
 H         3.147887         0.788697        -2.460818
 H         2.644972        -2.242291        -1.157154
 H         3.794186        -1.813758         0.200411
