19
Iteration:  4843
 C         0.048271         0.900340        -0.165541
 C         1.373841         0.164927         0.166914
 C         1.885708        -1.071009         1.286396
 C         2.853362        -0.027187         1.869773
 C         2.724189         0.750167         0.548980
 O         3.290722         1.939134         0.448328
 C         2.659266        -0.338066        -0.526132
 O         3.069712         0.008626        -1.836987
 C         2.491212        -1.672671         0.073121
 H        -0.028546         2.014539         0.221801
 H         0.056518         0.920991        -1.219597
 H        -0.687666         0.209234         0.279633
 H         1.126229        -1.610546         1.944640
 H         2.562794         0.677038         2.694276
 H         3.863044        -0.372538         2.120542
 H         2.933787         2.435525        -0.384286
 H         4.022378        -0.029600        -1.894130
 H         1.860952        -2.218284        -0.581155
 H         3.417587        -2.372343         0.070148
