19
Iteration:  4323
 C         0.098559         0.647639        -0.234048
 C         1.421446         0.270525         0.233717
 C         1.825084        -1.211341         1.032680
 C         2.633319        -0.207119         1.946363
 C         2.731190         0.686684         0.759919
 O         3.282141         2.014064         0.605726
 C         2.676530        -0.178952        -0.572916
 O         3.120035         0.382042        -1.704840
 C         2.592840        -1.693706        -0.222618
 H        -0.241814         1.431147         0.387326
 H         0.095916         1.033893        -1.351446
 H        -0.494701        -0.233052        -0.250289
 H         1.160529        -1.846142         1.659329
 H         1.963746         0.143810         2.682242
 H         3.490015        -0.581882         2.478289
 H         3.959941         2.107771        -0.098732
 H         3.666450        -0.331497        -2.029394
 H         1.949500        -2.307811        -1.001987
 H         3.592701        -2.198701        -0.120582
