19
Iteration:   441
 C         0.129591         0.585661        -0.336614
 C         1.451657        -0.032387         0.014799
 C         1.915361        -1.508067         0.429039
 C         2.381259        -0.706692         1.743748
 C         2.511721         0.528227         0.896515
 O         2.765049         1.799109         1.374196
 C         2.818196         0.085652        -0.568991
 O         3.486465         1.115791        -1.290205
 C         3.052687        -1.400249        -0.635457
 H         0.332323         1.602435        -0.601244
 H        -0.472378         0.060045        -1.049267
 H        -0.560787         0.713335         0.607560
 H         1.208234        -2.456945         0.325938
 H         1.575123        -0.671752         2.519836
 H         3.280502        -0.963701         2.274098
 H         2.853580         2.264346         0.513634
 H         3.236850         1.153339        -2.288613
 H         2.666343        -1.805130        -1.604466
 H         4.059591        -1.838313        -0.439393
