19
Iteration:  2553
 C         0.039705         0.742609        -0.260083
 C         1.432471         0.113234         0.157655
 C         1.838005        -1.200826         1.066754
 C         2.729898        -0.252490         1.906773
 C         2.687109         0.641726         0.700437
 O         3.115179         1.972090         0.665974
 C         2.656904        -0.227312        -0.582321
 O         3.244781         0.481442        -1.635487
 C         2.711581        -1.677354        -0.210908
 H        -0.536645        -0.022478        -0.792061
 H        -0.503320         0.884412         0.683478
 H         0.253821         1.716335        -0.716889
 H         1.069016        -1.772680         1.577519
 H         2.132379         0.177520         2.726648
 H         3.714896        -0.663616         2.474851
 H         3.797802         2.104579        -0.096166
 H         2.701971         0.312395        -2.502701
 H         2.066240        -2.222306        -0.846498
 H         3.725590        -2.133050        -0.246988
