19
Iteration:  2203
 C         0.050287         0.635477        -0.304024
 C         1.373056         0.059560         0.113067
 C         1.809233        -1.132674         0.894757
 C         2.684781        -0.403161         1.872216
 C         2.707688         0.625839         0.733130
 O         3.080738         1.942108         0.825773
 C         2.793765        -0.087570        -0.514936
 O         3.279980         0.555057        -1.661321
 C         2.719519        -1.602038        -0.178105
 H         0.026325         0.696016        -1.383450
 H        -0.785296         0.180816         0.219632
 H        -0.062210         1.548809         0.159437
 H         1.154040        -1.883961         1.287466
 H         2.033135         0.011525         2.760887
 H         3.715227        -0.885876         2.179773
 H         3.435368         2.159271         0.007946
 H         2.394172         0.540282        -2.239650
 H         2.316652        -2.145714        -0.972770
 H         3.674004        -2.006535         0.048267
