19
Iteration:  3449charge 0 multiplicity 1
 C        -0.035223         0.733317        -0.198867
 C         1.418140         0.128513         0.081266
 C         1.842411        -1.283245         0.796044
 C         2.534175        -0.473005         1.911630
 C         2.648416         0.680180         0.849185
 O         3.043429         1.968525         0.932427
 C         2.740550        -0.158096        -0.702767
 O         3.357822         0.580697        -1.659975
 C         2.880562        -1.526420        -0.304914
 H        -0.092570         1.289615        -1.129345
 H        -0.805866        -0.004595        -0.310202
 H        -0.353847         1.302692         0.690748
 H         1.135326        -1.944809         1.220689
 H         1.756351        -0.002748         2.608308
 H         3.382681        -1.009858         2.270851
 H         4.069274         1.986413         0.705111
 H         3.134960         0.000428        -2.536783
 H         2.438657        -2.285687        -0.951401
 H         3.895461        -2.012369        -0.015929
