19
Iteration:  3182
 C         0.128870         0.802367        -0.229973
 C         1.428601         0.067262         0.178733
 C         1.813831        -1.229977         0.905743
 C         2.605180        -0.471317         1.929606
 C         2.640129         0.674441         0.749007
 O         2.999760         2.044079         0.911354
 C         2.848815        -0.181788        -0.645982
 O         3.225303         0.544303        -1.791372
 C         2.817149        -1.708090        -0.229329
 H        -0.704964         0.081358        -0.398436
 H        -0.058001         1.669864         0.471087
 H         0.251873         1.239723        -1.215280
 H         1.079362        -2.095768         1.240339
 H         2.069158        -0.100630         2.782936
 H         3.490534        -0.826781         2.409275
 H         3.491438         2.493667         0.291738
 H         2.495202         0.378822        -2.481220
 H         2.434355        -2.338321        -1.012335
 H         3.786902        -2.036763         0.188407
