19
Iteration:  4846
 C         0.039976         0.900059        -0.174973
 C         1.368790         0.200528         0.188734
 C         1.881542        -1.060656         1.316375
 C         2.868866        -0.034814         1.831774
 C         2.696804         0.739698         0.571698
 O         3.290125         1.932189         0.441457
 C         2.681462        -0.329074        -0.545613
 O         3.057862         0.000637        -1.824868
 C         2.506600        -1.678843         0.066301
 H        -0.029876         1.919394         0.284017
 H         0.059974         1.037942        -1.270452
 H        -0.665623         0.144972         0.211861
 H         1.175156        -1.616917         1.891735
 H         2.434875         0.671481         2.694987
 H         3.910525        -0.360744         2.201571
 H         3.028028         2.304768        -0.427421
 H         4.121530         0.021469        -1.867283
 H         1.846051        -2.267975        -0.553329
 H         3.346408        -2.325538        -0.006459
