19
Iteration:   297
 C         0.120317         0.588248        -0.595398
 C         1.341481         0.023243         0.082091
 C         1.942594        -1.430100         0.384535
 C         2.484921        -0.839263         1.777440
 C         2.399379         0.457149         1.043938
 O         2.881111         1.710887         1.435189
 C         2.770318         0.139601        -0.503255
 O         3.396284         1.162310        -1.300984
 C         3.094176        -1.263289        -0.635327
 H        -0.628770        -0.206337        -0.752818
 H        -0.226788         1.316714         0.156852
 H         0.164685         1.040308        -1.578615
 H         1.355280        -2.212013         0.274452
 H         1.810339        -0.913695         2.612067
 H         3.464257        -1.222232         2.115572
 H         3.112017         2.115149         0.590350
 H         3.062834         0.898866        -2.230486
 H         2.853704        -1.731998        -1.623475
 H         4.079450        -1.836126        -0.233749
