19
Iteration:  4338
 C         0.045232         0.730876        -0.248731
 C         1.403070         0.112499         0.189724
 C         1.814750        -1.111227         1.056817
 C         2.685347        -0.252674         1.974925
 C         2.767595         0.710956         0.776296
 O         3.264799         1.989213         0.621080
 C         2.651155        -0.199288        -0.527388
 O         3.096962         0.337182        -1.789564
 C         2.670000        -1.619596        -0.183617
 H        -0.600669         1.248124         0.557774
 H         0.208947         1.362974        -1.072807
 H        -0.652845        -0.078343        -0.679960
 H         1.025051        -1.857861         1.296303
 H         2.007474         0.163801         2.800503
 H         3.514374        -0.671044         2.545657
 H         3.955313         1.900354        -0.111357
 H         4.021490        -0.014485        -2.174835
 H         2.021866        -2.190833        -0.813423
 H         3.589557        -2.227529        -0.023169
