19
Iteration:  1358charge 0 multiplicity 1
 C         0.109655         0.596495        -0.265571
 C         1.465077         0.019176         0.078806
 C         1.728544        -1.363948         0.691728
 C         2.637146        -0.524210         1.873920
 C         2.597633         0.585979         0.756123
 O         2.894184         1.950396         1.114323
 C         2.822209        -0.018622        -0.587242
 O         3.411984         0.858536        -1.497563
 C         2.837830        -1.577789        -0.435739
 H        -0.649670         0.031157         0.263820
 H        -0.020318         1.661550        -0.045867
 H        -0.032839         0.647018        -1.381124
 H         0.900063        -2.100905         0.844957
 H         1.895241        -0.183780         2.676973
 H         3.562801        -1.102308         2.254041
 H         3.294692         2.300594         0.228760
 H         3.108575         0.593146        -2.478986
 H         2.298892        -1.935039        -1.296026
 H         3.697700        -2.137108        -0.172001
