19
Iteration:   203charge 0 multiplicity 1
 C         0.012104         0.658783        -0.403036
 C         1.349286        -0.011952        -0.038143
 C         1.976283        -1.465593         0.431521
 C         2.487011        -0.833330         1.681521
 C         2.390531         0.446842         0.941519
 O         2.642260         1.680572         1.492017
 C         2.893527         0.169543        -0.545299
 O         3.579529         1.104708        -1.295548
 C         3.125177        -1.273160        -0.692427
 H        -0.251915         1.410716         0.361015
 H         0.060368         1.102659        -1.396229
 H        -0.831721        -0.040551        -0.164459
 H         1.401751        -2.566510         0.381003
 H         1.690963        -0.716327         2.484582
 H         3.505278        -1.092355         1.991785
 H         3.339604         2.336938         1.098490
 H         3.154495         1.298525        -2.126261
 H         2.799421        -1.636642        -1.687548
 H         4.099376        -1.637496        -0.475131
