19
Iteration:  3271charge 0 multiplicity 1
 C         0.045816         0.620991        -0.160322
 C         1.340260         0.093829         0.087023
 C         1.757325        -1.273506         0.918397
 C         2.617432        -0.361995         1.904132
 C         2.613800         0.612995         0.737261
 O         3.089014         1.919512         0.823272
 C         2.786725        -0.057901        -0.554509
 O         3.426359         0.607667        -1.664059
 C         2.746208        -1.587617        -0.299148
 H        -0.559643         0.895676         0.734574
 H         0.055759         1.534816        -0.791685
 H        -0.659484         0.018443        -0.694168
 H         1.026221        -2.038741         1.245569
 H         2.053958        -0.142286         2.818756
 H         3.552784        -0.700333         2.249325
 H         3.761229         1.998742         0.156470
 H         2.946134         0.872619        -2.533249
 H         2.301755        -1.979317        -1.183738
 H         3.717592        -2.141838        -0.050497
