19
Iteration:  3456charge 0 multiplicity 1
 C         0.006689         0.695410        -0.144331
 C         1.425270         0.184887         0.100119
 C         1.802152        -1.259093         0.768370
 C         2.493093        -0.412326         1.843074
 C         2.655487         0.631667         0.832182
 O         3.039008         1.935377         0.902901
 C         2.717005        -0.113796        -0.621024
 O         3.341408         0.545746        -1.657774
 C         2.892576        -1.541124        -0.308561
 H         0.024727         1.199083        -1.133066
 H        -0.660767        -0.188086        -0.209384
 H        -0.323996         1.323166         0.656371
 H         1.015604        -1.966750         1.030858
 H         1.908792        -0.183678         2.767449
 H         3.437039        -0.877046         2.340837
 H         4.013781         2.027105         0.738412
 H         3.458152         0.173705        -2.553582
 H         2.594186        -2.186255        -1.158377
 H         3.861650        -1.926699         0.050467
