19
Iteration:   806
 C         0.103958         0.506410        -0.406327
 C         1.404456         0.041279         0.057037
 C         1.884783        -1.418165         0.663289
 C         2.568936        -0.557047         1.792159
 C         2.518374         0.595680         0.903172
 O         2.886223         1.847407         1.274151
 C         2.788136         0.031159        -0.549250
 O         3.472151         0.962761        -1.370595
 C         2.841496        -1.494682        -0.637580
 H        -0.371497         1.156780         0.349319
 H         0.212775         1.006245        -1.352358
 H        -0.651693        -0.273512        -0.628081
 H         1.156754        -2.154863         0.869885
 H         1.809306        -0.388260         2.565341
 H         3.600743        -0.907455         2.045396
 H         3.244489         2.258994         0.460551
 H         3.160296         1.048228        -2.213548
 H         2.271021        -1.727918        -1.596678
 H         3.842344        -2.115204        -0.707722
