19
Iteration:  1107charge 0 multiplicity 1
 C         0.176981         0.662358        -0.378374
 C         1.355848         0.024762         0.107612
 C         1.926947        -1.411330         0.682383
 C         2.610338        -0.638088         1.773602
 C         2.587956         0.570755         0.865857
 O         2.811131         1.910179         1.155823
 C         2.701159         0.014562        -0.570934
 O         3.375807         0.829485        -1.425185
 C         2.846007        -1.432624        -0.504376
 H         0.451803         1.068266        -1.336144
 H        -0.757001         0.079769        -0.377657
 H        -0.156358         1.602075         0.200868
 H         1.355891        -2.295481         0.923339
 H         1.981645        -0.410329         2.568578
 H         3.577197        -0.965029         2.044947
 H         3.714624         2.202494         0.711886
 H         3.549962         0.473943        -2.413450
 H         2.235984        -1.869258        -1.335663
 H         3.908878        -1.886244        -0.276153
