19
Iteration:  2700charge 0 multiplicity 1
 C        -0.019684         0.737591        -0.174906
 C         1.398182         0.119756         0.149482
 C         1.782041        -1.192185         1.024124
 C         2.719887        -0.201084         1.980751
 C         2.665304         0.707009         0.744499
 O         3.139449         1.938078         0.627545
 C         2.662400        -0.260252        -0.609233
 O         3.343381         0.415688        -1.672900
 C         2.726921        -1.651687        -0.237830
 H        -0.370329         0.696821        -1.202489
 H        -0.726078         0.225191         0.478487
 H         0.093181         1.756759         0.020676
 H         1.232503        -1.917252         1.600637
 H         2.156460        -0.007581         2.898463
 H         3.676607        -0.620293         2.106016
 H         3.587119         2.020354        -0.234329
 H         2.730976         0.510672        -2.333726
 H         2.271256        -2.205863        -0.976259
 H         3.733670        -1.918785        -0.067083
