19
Iteration:  2943
 C         0.056841         0.743596        -0.201680
 C         1.363487         0.107224         0.183208
 C         1.765148        -1.201768         0.934137
 C         2.787843        -0.398446         1.804666
 C         2.727145         0.640603         0.713925
 O         2.980631         1.943155         0.666384
 C         2.738271        -0.108935        -0.503111
 O         3.342746         0.494840        -1.600368
 C         2.693443        -1.602269        -0.196383
 H        -0.001391         1.639903         0.384300
 H         0.000524         0.930689        -1.269405
 H        -0.757406         0.101333         0.097694
 H         0.922492        -1.903548         1.374733
 H         2.296744         0.162104         2.691330
 H         3.763939        -0.785943         2.191269
 H         3.800874         2.095557         0.057380
 H         2.777113         0.292654        -2.275949
 H         2.120997        -2.079386        -1.002629
 H         3.643549        -2.307257        -0.032601
