19
Iteration:    22
 C         0.070511         0.584148        -0.566203
 C         1.394564         0.035897        -0.062379
 C         1.818508        -1.422118         0.299076
 C         2.578722        -0.976885         1.598215
 C         2.565173         0.428957         0.916911
 O         2.695135         1.657489         1.563301
 C         2.842288         0.190190        -0.527338
 O         3.326527         1.360860        -1.110237
 C         3.155136        -1.343580        -0.597299
 H        -0.787222        -0.030233        -0.203049
 H        -0.169250         1.558148        -0.171734
 H         0.003831         0.615146        -1.641313
 H         1.117357        -2.315713         0.334680
 H         2.013128        -0.975284         2.583617
 H         3.566970        -1.435778         1.820242
 H         3.547939         2.131599         1.153884
 H         3.529418         1.095397        -2.100395
 H         3.067657        -1.841028        -1.541740
 H         3.978701        -1.724917        -0.090312
