19
Iteration:  2116charge 0 multiplicity 1
 C         0.055887         0.659775        -0.358708
 C         1.434816         0.155844         0.137410
 C         1.812673        -1.220205         0.929578
 C         2.765308        -0.404660         1.893272
 C         2.637399         0.654476         0.807866
 O         3.022068         1.968220         0.831170
 C         2.678051        -0.184441        -0.637797
 O         3.305963         0.636213        -1.568801
 C         2.747320        -1.652665        -0.233420
 H        -0.831049        -0.085648        -0.241297
 H        -0.238754         1.475210         0.392519
 H         0.025061         1.134490        -1.373357
 H         1.257157        -2.093309         1.268700
 H         2.175447        -0.153170         2.875009
 H         3.770186        -0.911388         1.981899
 H         3.660813         2.051479        -0.001684
 H         2.847455         0.525699        -2.398929
 H         2.113391        -2.251415        -0.978913
 H         3.722485        -2.139634        -0.082376
