19
Iteration:  4315charge 0 multiplicity 1
 C         0.135427         0.658331        -0.269542
 C         1.402130         0.166815         0.207862
 C         1.780772        -1.178455         1.043240
 C         2.700364        -0.185323         1.937441
 C         2.734276         0.714835         0.700656
 O         3.277934         1.978087         0.628033
 C         2.641038        -0.168712        -0.499291
 O         3.163912         0.413748        -1.722416
 C         2.588484        -1.677269        -0.176641
 H        -0.285811         1.456923         0.413545
 H        -0.066844         0.814034        -1.296487
 H        -0.544125        -0.214981         0.024009
 H         0.957327        -1.884361         1.339822
 H         2.014990         0.056983         2.772824
 H         3.553140        -0.596590         2.415085
 H         3.863832         2.157454        -0.111936
 H         3.593482        -0.190258        -2.241157
 H         1.902604        -2.177943        -0.877789
 H         3.482026        -2.332466        -0.165751
