19
Iteration:  3780
 C         0.134930         0.739855        -0.375347
 C         1.433443         0.131226         0.221371
 C         1.782297        -1.264201         0.911662
 C         2.732318        -0.378278         1.863660
 C         2.703588         0.625520         0.766217
 O         3.093791         2.016046         0.940045
 C         2.706317        -0.129628        -0.560242
 O         3.245853         0.491937        -1.691981
 C         2.685255        -1.659240        -0.237776
 H        -0.475289        -0.122903        -0.674296
 H        -0.454516         1.366469         0.250972
 H         0.432341         1.228212        -1.355107
 H         0.942091        -1.873996         1.327064
 H         2.080926        -0.051560         2.705878
 H         3.734008        -0.740421         2.194819
 H         3.075863         2.353042         0.028082
 H         2.467239         0.663250        -2.362172
 H         2.329647        -2.206979        -1.073840
 H         3.629143        -2.212583         0.015419
