19
Iteration:  4245
 C         0.105081         0.785140        -0.293822
 C         1.386764         0.085248         0.221113
 C         1.818316        -1.201250         1.060209
 C         2.641257        -0.253607         1.976011
 C         2.703906         0.628596         0.786006
 O         3.154839         1.995797         0.611970
 C         2.755242        -0.164435        -0.518185
 O         3.210883         0.329939        -1.811347
 C         2.726264        -1.610178        -0.152890
 H         0.256579         1.812360        -0.577120
 H        -0.509671         0.118268        -1.028832
 H        -0.530276         0.884965         0.593401
 H         1.077469        -1.844167         1.508758
 H         1.958624         0.272759         2.626422
 H         3.629708        -0.551991         2.336567
 H         3.876880         1.809250         0.013480
 H         2.498407         0.816564        -2.147069
 H         2.026850        -2.107026        -0.953324
 H         3.555263        -2.349538        -0.038802
