19
Iteration:  4294
 C        -0.018645         0.650705        -0.275016
 C         1.347491         0.171539         0.141826
 C         1.741616        -1.071339         1.090777
 C         2.771661        -0.253246         1.883089
 C         2.695051         0.615856         0.695891
 O         3.258788         1.938326         0.670775
 C         2.762611        -0.171425        -0.567803
 O         3.217855         0.473240        -1.705449
 C         2.611916        -1.681682        -0.097201
 H         0.007622         1.753368         0.059002
 H        -0.028172         0.634004        -1.315001
 H        -0.998969         0.130266         0.020252
 H         1.119417        -1.706561         1.770475
 H         2.424487         0.179872         2.886893
 H         3.670752        -0.850163         2.145007
 H         3.605721         2.241352        -0.232570
 H         3.231804        -0.190938        -2.561855
 H         2.184414        -2.381065        -0.746226
 H         3.544725        -2.202614         0.158280
