19
Iteration:  2710charge 0 multiplicity 1
 C         0.021950         0.726851        -0.112309
 C         1.422474         0.157230         0.069727
 C         1.819066        -1.163933         1.004022
 C         2.648359        -0.237918         1.875190
 C         2.678360         0.663931         0.730164
 O         3.148789         1.990502         0.671939
 C         2.647760        -0.220164        -0.626681
 O         3.300820         0.413715        -1.678311
 C         2.771187        -1.713544        -0.143422
 H        -0.387493         0.465749        -1.089287
 H        -0.642313         0.341993         0.670250
 H        -0.080444         1.737402         0.091453
 H         0.971676        -1.759846         1.170713
 H         2.181486         0.094880         2.792936
 H         3.634311        -0.606172         2.237506
 H         3.591430         2.090517        -0.149822
 H         2.783477         0.531967        -2.428682
 H         2.280942        -2.377167        -0.774969
 H         3.696579        -2.223712         0.107090
