19
Iteration:  4229charge 0 multiplicity 1
 C         0.187025         0.762728        -0.191232
 C         1.480562         0.151325         0.101194
 C         1.785994        -1.188716         1.033473
 C         2.631806        -0.259415         1.990211
 C         2.755770         0.689332         0.704339
 O         3.074212         1.975289         0.612696
 C         2.749972        -0.210119        -0.597480
 O         3.180023         0.361391        -1.767917
 C         2.653862        -1.684698        -0.122298
 H         0.402663         1.458774        -1.044225
 H        -0.421645         0.026300        -0.638502
 H        -0.416725         1.213586         0.647302
 H         1.111429        -2.001448         1.391536
 H         2.011316         0.176260         2.855900
 H         3.452048        -0.729903         2.647110
 H         4.029020         2.188031         0.470963
 H         2.381504         0.846668        -2.160792
 H         2.142342        -2.295885        -0.787907
 H         3.628708        -2.086501         0.160558
