19
Iteration:  2373charge 0 multiplicity 1
 C         0.122981         0.610652        -0.369428
 C         1.377954         0.074808         0.188827
 C         1.782772        -1.200433         1.053187
 C         2.735778        -0.382483         1.957874
 C         2.644229         0.687693         0.804310
 O         3.132131         1.989378         0.681540
 C         2.754916        -0.143708        -0.531846
 O         3.260233         0.606328        -1.657987
 C         2.628656        -1.612002        -0.244249
 H        -0.124961         1.432959         0.265175
 H         0.181854         1.084941        -1.314401
 H        -0.695999        -0.101961        -0.200286
 H         1.371648        -2.141127         1.649675
 H         2.198837        -0.030137         2.879028
 H         3.849065        -0.793643         2.040459
 H         3.389517         2.101636        -0.283279
 H         2.852939         0.095276        -2.514927
 H         1.940838        -2.138842        -0.975138
 H         3.520217        -2.132881        -0.132714
