19
Iteration:  3389charge 0 multiplicity 1
 C         0.144858         0.771868        -0.456669
 C         1.466281         0.071534         0.198699
 C         1.796013        -1.341061         0.889723
 C         2.684431        -0.486977         1.957864
 C         2.683978         0.594905         0.896793
 O         2.995291         2.034786         0.877410
 C         2.763119        -0.092493        -0.574696
 O         3.240345         0.667685        -1.672942
 C         2.749943        -1.666465        -0.283153
 H         0.349152         1.846091        -0.523547
 H        -0.134144         0.293801        -1.429714
 H        -0.752812         0.782822         0.155022
 H         1.047513        -2.131859         1.339104
 H         2.320464        -0.371645         2.966296
 H         3.722645        -0.943738         2.332067
 H         3.228529         2.110566        -0.057347
 H         2.474873         0.673548        -2.273099
 H         2.191931        -2.192154        -1.155181
 H         3.647834        -2.202703        -0.069671
