19
Iteration:  1878
 C         0.133583         0.684570        -0.301290
 C         1.368865        -0.035817         0.135396
 C         1.837152        -1.355420         0.836718
 C         2.560456        -0.340366         1.858193
 C         2.658494         0.606726         0.718924
 O         3.071603         1.979635         1.100923
 C         2.723700        -0.090330        -0.626583
 O         3.305331         0.609169        -1.695346
 C         2.794180        -1.550133        -0.291925
 H         0.096741         0.828294        -1.387177
 H        -0.602950         0.049655         0.145716
 H        -0.018430         1.743534         0.109702
 H         1.205429        -2.193371         1.293667
 H         1.895649        -0.025862         2.640856
 H         3.627652        -0.642272         2.196272
 H         3.359420         2.426380         0.259094
 H         2.601423         0.657242        -2.459536
 H         2.425399        -2.141010        -1.089337
 H         3.791289        -1.842907        -0.053190
