19
Iteration:  2874charge 0 multiplicity 1
 C        -0.007230         0.603125        -0.257915
 C         1.348604         0.112137         0.121948
 C         1.741137        -1.177445         0.953633
 C         2.664145        -0.312514         1.849686
 C         2.756870         0.697621         0.719410
 O         3.330200         1.960051         0.844446
 C         2.630049        -0.122996        -0.567834
 O         3.168346         0.547440        -1.780681
 C         2.790638        -1.678323        -0.073235
 H        -0.763639         0.461763         0.549410
 H         0.141145         1.672938        -0.583156
 H        -0.344076         0.111131        -1.185351
 H         0.905270        -1.769571         1.346295
 H         2.103072         0.032571         2.728042
 H         3.518479        -0.873113         2.325788
 H         3.721696         2.145590         0.028040
 H         2.607721         0.351922        -2.608386
 H         2.486933        -2.485849        -0.744103
 H         3.888447        -1.908515         0.265011
