19
Iteration:  1936charge 0 multiplicity 1
 C         0.072607         0.631972        -0.317412
 C         1.266737         0.017434         0.228197
 C         1.841516        -1.304757         0.891252
 C         2.649836        -0.431379         1.836443
 C         2.607755         0.634379         0.748129
 O         3.111737         1.958601         0.858812
 C         2.661340        -0.065980        -0.577612
 O         3.351635         0.687425        -1.548343
 C         2.811435        -1.568719        -0.274692
 H         0.466952         1.567015        -0.735703
 H        -0.287192         0.150181        -1.310319
 H        -0.729912         0.800031         0.359760
 H         1.118220        -1.914444         1.348323
 H         2.113081        -0.365769         2.719418
 H         3.625214        -0.784201         2.069885
 H         3.658995         2.019422        -0.021931
 H         2.909679         0.590724        -2.390208
 H         2.280805        -2.015444        -1.085224
 H         3.822287        -2.021318        -0.229492
