19
Iteration:  4113
 C         0.068793         0.726722        -0.227131
 C         1.362489         0.093003         0.129054
 C         1.751568        -1.135836         1.002077
 C         2.683176        -0.252895         1.919900
 C         2.650470         0.632991         0.751335
 O         3.272128         1.909543         0.676717
 C         2.608188        -0.225684        -0.592144
 O         3.223966         0.561700        -1.635053
 C         2.757792        -1.691912        -0.176452
 H        -0.698263        -0.035803        -0.459513
 H        -0.377493         1.580855         0.445444
 H         0.157359         1.197265        -1.230536
 H         1.059913        -1.877593         1.374324
 H         1.928529         0.135662         2.582096
 H         3.500893        -0.562918         2.513488
 H         3.632840         1.895773        -0.250651
 H         3.639089        -0.061971        -2.328819
 H         2.167936        -2.311173        -0.930161
 H         3.790529        -1.941191         0.030500
