19
Iteration:  2686charge 0 multiplicity 1
 C         0.039802         0.739143        -0.223978
 C         1.262320         0.057446         0.249680
 C         1.867037        -1.201826         1.031747
 C         2.774949        -0.293949         1.901564
 C         2.606812         0.627103         0.736859
 O         3.151904         1.970163         0.567736
 C         2.689916        -0.085108        -0.519231
 O         3.349239         0.406788        -1.645140
 C         2.687220        -1.601361        -0.220473
 H        -0.017753         0.580643        -1.314772
 H        -0.901583         0.397242         0.233235
 H        -0.041205         1.775002         0.069184
 H         1.141340        -1.907296         1.424368
 H         2.262258         0.220220         2.688220
 H         3.756243        -0.606983         2.416342
 H         3.588840         1.902757        -0.329589
 H         2.717359         0.512885        -2.461102
 H         2.072447        -2.247792        -0.852055
 H         3.600087        -2.243763        -0.019441
