19
Iteration:  4050charge 0 multiplicity 1
 C         0.084917         0.650994        -0.309925
 C         1.391832         0.176502         0.134603
 C         1.737147        -1.160301         0.983210
 C         2.726006        -0.293280         1.829195
 C         2.721634         0.632035         0.696393
 O         3.239545         2.017958         0.881794
 C         2.684811        -0.227356        -0.587746
 O         3.267289         0.475274        -1.685872
 C         2.636996        -1.676635        -0.170781
 H        -0.566814         0.328679         0.452012
 H        -0.164115         1.702203        -0.510458
 H        -0.028232         0.006441        -1.127299
 H         1.058301        -1.813376         1.584684
 H         2.100552         0.295343         2.528880
 H         3.671135        -0.663962         2.352492
 H         3.378394         2.283992        -0.072318
 H         2.486951         0.491341        -2.372024
 H         1.984606        -2.177043        -0.903932
 H         3.508119        -2.254298         0.126389
