19
Iteration:  1662
 C         0.117200         0.643796        -0.422550
 C         1.375389         0.065339         0.151639
 C         1.805464        -1.368800         0.827619
 C         2.705491        -0.491304         1.808076
 C         2.611900         0.605362         0.786503
 O         2.981739         1.930474         0.983293
 C         2.661891        -0.045295        -0.548365
 O         3.299136         0.766587        -1.491631
 C         2.847927        -1.567422        -0.363212
 H        -0.128697         1.567008         0.139591
 H         0.198335         1.077598        -1.491742
 H        -0.707180        -0.014430        -0.233838
 H         0.997710        -2.127262         1.089592
 H         2.193131        -0.092495         2.827667
 H         3.738208        -0.887564         2.165424
 H         3.829330         2.055840         0.496972
 H         2.851749         0.571263        -2.321773
 H         2.488494        -2.130823        -1.199993
 H         3.863444        -1.953736        -0.113128
