19
Iteration:  2125charge 0 multiplicity 1
 C        -0.002025         0.665767        -0.335192
 C         1.371801         0.111722         0.148346
 C         1.823113        -1.169585         0.881540
 C         2.751305        -0.454659         1.890981
 C         2.644503         0.633205         0.841381
 O         3.076978         2.002968         0.847507
 C         2.672799        -0.167790        -0.654646
 O         3.274161         0.607535        -1.600962
 C         2.808883        -1.652769        -0.227013
 H        -0.812771        -0.116615        -0.472466
 H        -0.442242         1.400931         0.426257
 H         0.176909         1.117435        -1.265213
 H         0.884718        -1.675928         1.236991
 H         2.282534        -0.145807         2.915472
 H         3.850871        -0.803088         2.190867
 H         3.699214         2.016500         0.022150
 H         3.057071         0.468517        -2.515616
 H         2.413373        -2.221582        -1.035725
 H         3.753490        -2.081141         0.104286
