19
Iteration:  1272
 C         0.173418         0.648091        -0.384698
 C         1.434514         0.056363         0.126653
 C         1.875229        -1.404372         0.757468
 C         2.557603        -0.530833         1.832530
 C         2.618846         0.592747         0.880724
 O         2.894963         1.916107         1.174285
 C         2.787144        -0.039382        -0.628260
 O         3.342211         0.880222        -1.533578
 C         2.841022        -1.585594        -0.484784
 H        -0.165260         1.412882         0.278432
 H         0.284229         1.081966        -1.365968
 H        -0.637547        -0.190786        -0.509917
 H         1.158747        -2.262253         1.074123
 H         1.784538        -0.425250         2.666869
 H         3.556504        -0.958399         2.215172
 H         3.290937         2.320994         0.384248
 H         2.783635         0.950271        -2.296926
 H         2.222022        -2.015629        -1.273119
 H         3.803859        -2.177008        -0.510836
