19
Iteration:  3081
 C         0.019634         0.615637        -0.348035
 C         1.371114         0.126641         0.263314
 C         1.815231        -1.293376         0.963344
 C         2.680398        -0.386700         1.901503
 C         2.658429         0.685570         0.808681
 O         3.231532         2.016217         0.705501
 C         2.666984        -0.189748        -0.557296
 O         3.303864         0.629883        -1.573099
 C         2.682642        -1.636567        -0.281153
 H        -0.003494         0.764353        -1.490012
 H        -0.873398        -0.024366        -0.053602
 H        -0.164287         1.647893         0.021061
 H         1.125514        -2.096390         1.363666
 H         2.044441        -0.063628         2.710090
 H         3.656598        -0.743600         2.377909
 H         3.394359         2.297493        -0.153846
 H         2.967605         0.495675        -2.557855
 H         2.269900        -2.226938        -1.187060
 H         3.617746        -2.126826        -0.053864
