19
Iteration:  1565
 C         0.052492         0.661324        -0.262293
 C         1.342633        -0.089339         0.089928
 C         1.860765        -1.328927         0.765022
 C         2.571032        -0.475081         1.833376
 C         2.569522         0.615464         0.766871
 O         2.986913         1.880704         1.041602
 C         2.745121         0.026533        -0.563534
 O         3.387595         0.777841        -1.553351
 C         2.887248        -1.542756        -0.373647
 H         0.410928         1.146401        -1.166611
 H        -0.960903         0.195047        -0.432464
 H        -0.156691         1.410431         0.526336
 H         1.190051        -2.194259         1.037628
 H         1.794989        -0.165335         2.601187
 H         3.528576        -0.717509         2.197641
 H         3.881105         2.001948         0.524394
 H         3.068975         0.546181        -2.520809
 H         2.318805        -1.969361        -1.215619
 H         3.911699        -1.881107        -0.329584
