19
Iteration:  3651charge 0 multiplicity 1
 C         0.046451         0.756309        -0.267136
 C         1.414148         0.097958         0.096360
 C         1.836528        -1.268437         0.933117
 C         2.639704        -0.327508         1.957615
 C         2.631898         0.665458         0.783280
 O         3.025560         1.935925         0.907836
 C         2.782037        -0.119530        -0.630311
 O         3.399252         0.567152        -1.674278
 C         2.737974        -1.699099        -0.341918
 H        -0.328413         1.381822         0.598515
 H         0.101695         1.281214        -1.238974
 H        -0.666743        -0.056338        -0.367791
 H         0.986942        -1.842063         1.315863
 H         2.031750        -0.296453         2.845489
 H         3.619215        -0.824885         2.299171
 H         3.439907         2.093082         0.093861
 H         2.771056         0.683279        -2.310118
 H         1.884596        -2.130058        -1.008714
 H         3.634935        -2.284591        -0.242677
