19
Iteration:  2749
 C         0.038654         0.775876        -0.102338
 C         1.414619         0.063835         0.068478
 C         1.830971        -1.186117         0.945311
 C         2.592552        -0.280709         1.980077
 C         2.686368         0.656800         0.698706
 O         3.142173         1.972166         0.751691
 C         2.672502        -0.141932        -0.603326
 O         3.269500         0.379740        -1.761879
 C         2.815965        -1.595553        -0.184925
 H        -0.643306         0.041931        -0.586783
 H        -0.280570         0.984765         0.950228
 H         0.099378         1.722466        -0.781455
 H         0.985383        -1.853297         1.331186
 H         2.001188         0.373315         2.642278
 H         3.515668        -0.652930         2.499707
 H         3.679838         2.055995        -0.057770
 H         2.848327        -0.190411        -2.544172
 H         2.067698        -2.262797        -0.801969
 H         3.852103        -2.043326        -0.026520
