19
Iteration:  2970
 C         0.119057         0.859199        -0.178899
 C         1.380995         0.073446         0.063021
 C         1.834703        -1.281704         0.984289
 C         2.746633        -0.400804         1.898227
 C         2.672036         0.709363         0.774343
 O         2.936810         2.053190         0.743304
 C         2.618631        -0.199699        -0.648403
 O         3.335210         0.521415        -1.694284
 C         2.751531        -1.759175        -0.176670
 H         0.344979         1.934148         0.095670
 H        -0.135123         0.763036        -1.265039
 H        -0.707232         0.305134         0.313861
 H         1.087305        -1.876231         1.330475
 H         2.402123        -0.103197         2.872868
 H         3.765949        -0.754140         2.128454
 H         3.943745         2.186828         0.532119
 H         2.922455         0.223569        -2.439470
 H         2.162496        -2.449770        -0.872947
 H         3.698305        -2.114220         0.014573
