19
Iteration:  3961charge 0 multiplicity 1
 C         0.188363         0.846649        -0.213111
 C         1.444379         0.056284         0.143113
 C         1.829942        -1.262769         0.986623
 C         2.612738        -0.285193         1.926657
 C         2.629271         0.593914         0.762663
 O         3.048378         1.898391         0.685477
 C         2.733417        -0.157449        -0.635980
 O         3.190178         0.606901        -1.716583
 C         2.764682        -1.690445        -0.162005
 H         0.312714         1.916646        -0.124411
 H        -0.107231         0.619373        -1.283045
 H        -0.688728         0.570421         0.273342
 H         1.254428        -2.082071         1.499986
 H         1.837337         0.145190         2.620518
 H         3.686802        -0.479680         2.323650
 H         4.040949         2.017763         0.770009
 H         2.893884        -0.046414        -2.549971
 H         2.194936        -2.452280        -0.845872
 H         3.647308        -2.189539         0.201330
