19
Iteration:  1593
 C        -0.030328         0.687720        -0.255315
 C         1.419861         0.146970         0.056931
 C         1.827953        -1.304881         0.730049
 C         2.602225        -0.543525         1.809563
 C         2.606634         0.586475         0.807917
 O         2.978101         1.908468         1.103671
 C         2.789698        -0.057665        -0.615352
 O         3.359975         0.680113        -1.595379
 C         2.927827        -1.570746        -0.307740
 H        -0.001981         1.673732        -0.780729
 H        -0.685533         0.107400        -0.944032
 H        -0.499657         0.845086         0.721021
 H         1.032699        -2.028594         0.904985
 H         1.927822        -0.350249         2.667515
 H         3.636097        -0.854310         2.253798
 H         3.168419         2.470747         0.228212
 H         2.892076         0.628597        -2.569119
 H         2.666469        -2.250939        -1.144282
 H         4.058387        -1.677585        -0.079832
