19
Iteration:  3202charge 0 multiplicity 1
 C         0.201339         0.810053        -0.222536
 C         1.424106         0.065877         0.082265
 C         1.829027        -1.289279         0.884494
 C         2.662865        -0.341137         1.845250
 C         2.720763         0.558425         0.750355
 O         2.926509         1.955248         0.878000
 C         2.684378        -0.129860        -0.589414
 O         3.223377         0.525999        -1.619236
 C         2.837074        -1.602541        -0.242372
 H        -0.732597         0.341180        -0.127087
 H         0.208076         1.773243         0.301016
 H         0.089708         1.131882        -1.226671
 H         1.128703        -2.078035         1.369057
 H         2.097319        -0.029073         2.672013
 H         3.605618        -0.643137         2.373941
 H         3.350871         2.261334         0.019046
 H         2.830912         0.211772        -2.375506
 H         2.254850        -2.099908        -1.121620
 H         3.778450        -2.117207        -0.026003
