19
Iteration:  2920
 C         0.028694         0.655216        -0.211779
 C         1.370842         0.142177         0.222775
 C         1.864323        -1.218160         0.959552
 C         2.647068        -0.349871         1.960164
 C         2.646803         0.706232         0.795986
 O         3.195062         2.041669         0.741491
 C         2.674365        -0.208302        -0.616710
 O         3.334868         0.485201        -1.692691
 C         2.679220        -1.624168        -0.347205
 H        -0.108276         1.367753         0.584118
 H         0.079055         1.108463        -1.203996
 H        -0.738234        -0.097636        -0.162023
 H         1.103639        -1.944703         1.496223
 H         1.972013         0.019185         2.810531
 H         3.599418        -0.677963         2.474095
 H         3.389872         2.097959        -0.176729
 H         2.898104         0.341685        -2.656100
 H         2.053913        -2.307094        -0.901835
 H         3.671062        -2.256161        -0.108802
