19
Iteration:  2480charge 0 multiplicity 1
 C         0.044666         0.714166        -0.111180
 C         1.379829         0.053395         0.073124
 C         1.799460        -1.182941         1.026570
 C         2.640679        -0.228240         1.894477
 C         2.612090         0.666363         0.718803
 O         3.125364         2.003866         0.785309
 C         2.730663        -0.169444        -0.593798
 O         3.318181         0.438721        -1.780683
 C         2.792278        -1.685904        -0.222723
 H        -0.721027         0.026789         0.353740
 H         0.112263         1.787070         0.264652
 H        -0.039960         0.913575        -1.190492
 H         0.978264        -1.813617         1.493275
 H         2.119880         0.082711         2.863697
 H         3.568676        -0.528786         2.250068
 H         3.759630         2.061925        -0.035593
 H         2.686422         0.328631        -2.590613
 H         2.170990        -2.268891        -0.994159
 H         3.603863        -2.365934         0.174086
