19
Iteration:  3015
 C         0.154086         0.764120        -0.233826
 C         1.469652         0.098482         0.106185
 C         1.813332        -1.218866         0.914356
 C         2.626880        -0.411518         1.993154
 C         2.698161         0.698563         0.795908
 O         2.970783         2.045765         0.888003
 C         2.783046        -0.164602        -0.649475
 O         3.191482         0.412001        -1.828237
 C         2.786761        -1.589008        -0.215150
 H         0.460582         1.732223        -0.739198
 H        -0.652334         0.146044        -0.716847
 H        -0.159523         1.091009         0.787865
 H         1.060375        -1.921322         1.212198
 H         2.006025        -0.158287         2.816283
 H         3.532213        -0.816174         2.479936
 H         3.772065         1.976119         0.258517
 H         2.702471         0.100366        -2.526045
 H         2.322339        -2.220701        -1.031918
 H         3.700499        -2.063228         0.055863
