19
Iteration:  2969
 C         0.117143         0.863050        -0.177003
 C         1.382206         0.073434         0.061749
 C         1.830388        -1.270124         0.983850
 C         2.746833        -0.397441         1.901735
 C         2.668318         0.710380         0.773144
 O         2.934653         2.049331         0.739837
 C         2.626856        -0.204216        -0.648902
 O         3.337051         0.525996        -1.691076
 C         2.745078        -1.762068        -0.178312
 H         0.296657         1.928102         0.106312
 H        -0.100365         0.741342        -1.245458
 H        -0.704292         0.293310         0.302471
 H         1.095634        -1.886691         1.335317
 H         2.423734        -0.138618         2.929557
 H         3.782257        -0.757740         2.095667
 H         3.960601         2.163032         0.515911
 H         2.914188         0.223908        -2.448919
 H         2.182820        -2.487709        -0.892385
 H         3.719416        -2.122880         0.011993
