19
Iteration:  1222
 C         0.044930         0.637929        -0.383362
 C         1.361433         0.077866         0.064411
 C         1.802488        -1.335528         0.707604
 C         2.695108        -0.652503         1.793044
 C         2.563506         0.571011         0.851486
 O         2.949122         1.884747         1.116642
 C         2.784842         0.031442        -0.603076
 O         3.352716         0.933399        -1.451362
 C         2.883218        -1.547272        -0.395800
 H        -0.193400         1.667003         0.037988
 H         0.004084         0.577949        -1.521166
 H        -0.719538        -0.077163        -0.206629
 H         1.120593        -2.169306         0.946276
 H         2.056894        -0.502232         2.740540
 H         3.677184        -1.182461         1.982613
 H         3.518658         2.230106         0.388521
 H         3.100710         0.568429        -2.386144
 H         2.577782        -2.343474        -1.107995
 H         3.726488        -1.925624         0.176465
