19
Iteration:   672
 C        -0.038905         0.639460        -0.414915
 C         1.385330         0.038434         0.019722
 C         1.913955        -1.400890         0.563901
 C         2.659221        -0.662719         1.787215
 C         2.513280         0.510561         0.919078
 O         2.760417         1.816539         1.288408
 C         2.761922         0.057375        -0.569651
 O         3.584819         0.992039        -1.381864
 C         2.904152        -1.471425        -0.588713
 H        -0.158707         0.695538        -1.475449
 H        -0.768285        -0.010625        -0.005396
 H        -0.314440         1.638223         0.103102
 H         1.322368        -2.420565         0.875214
 H         1.808979        -0.585361         2.518579
 H         3.595958        -0.861150         2.271710
 H         3.460144         2.235896         0.673734
 H         3.234517         1.007644        -2.219261
 H         2.533816        -1.930490        -1.518799
 H         3.901996        -1.914264        -0.217260
