19
Iteration:   747charge 0 multiplicity 1
 C         0.187115         0.694931        -0.428778
 C         1.386432        -0.100013        -0.035221
 C         1.913751        -1.460766         0.647527
 C         2.517828        -0.622103         1.790446
 C         2.480124         0.565156         0.881286
 O         2.895543         1.748766         1.291162
 C         2.748131         0.055637        -0.561156
 O         3.306741         0.976900        -1.453826
 C         2.999723        -1.397915        -0.460565
 H         0.447698         1.741632        -0.292677
 H        -0.200139         0.635157        -1.453353
 H        -0.610985         0.347356         0.223311
 H         1.233189        -2.395137         0.721025
 H         1.714871        -0.361766         2.544083
 H         3.532580        -0.878329         2.079171
 H         3.599365         2.119790         0.677381
 H         2.722878         1.090476        -2.321778
 H         2.792458        -1.846204        -1.448865
 H         4.055032        -1.569595        -0.016554
