19
Iteration:   342
 C         0.158536         0.491013        -0.474432
 C         1.467823         0.037011        -0.044064
 C         1.930460        -1.365883         0.426296
 C         2.487388        -0.738643         1.756930
 C         2.502927         0.549189         0.918864
 O         2.730134         1.713632         1.530190
 C         2.847624         0.127285        -0.611720
 O         3.428111         1.187714        -1.303940
 C         2.963702        -1.511362        -0.629096
 H        -0.090220         0.144959        -1.473921
 H        -0.646546         0.419378         0.249160
 H         0.289118         1.606521        -0.683163
 H         1.186358        -2.129555         0.590362
 H         1.693993        -0.750751         2.565734
 H         3.443520        -1.016653         2.277428
 H         3.338879         2.190391         0.963020
 H         2.803764         1.393395        -2.078935
 H         2.461768        -1.965549        -1.556937
 H         4.011632        -2.053868        -0.466439
