19
Iteration:  1278charge 0 multiplicity 1
 C         0.107036         0.653156        -0.405069
 C         1.447545         0.051633         0.071269
 C         1.812967        -1.396642         0.740875
 C         2.582015        -0.519775         1.890660
 C         2.683386         0.555953         0.863774
 O         2.876794         1.894031         1.172762
 C         2.834457        -0.010672        -0.634276
 O         3.322727         0.878755        -1.524732
 C         2.879621        -1.570951        -0.463002
 H        -0.376718         1.416945         0.291589
 H         0.219020         1.290629        -1.344829
 H        -0.645172        -0.065570        -0.475996
 H         1.223124        -2.240055         0.923045
 H         1.992196        -0.411272         2.838932
 H         3.529575        -1.008863         2.155159
 H         3.437548         2.323178         0.425472
 H         2.573920         0.863739        -2.294947
 H         2.250473        -2.164142        -1.181311
 H         3.769326        -2.200124        -0.369393
