19
Iteration:  4935
 C         0.168921         0.767429        -0.195977
 C         1.401983         0.189256         0.281564
 C         1.838530        -1.027753         1.254574
 C         2.820403         0.036739         1.861406
 C         2.800296         0.745664         0.557776
 O         3.338166         2.003161         0.410950
 C         2.530703        -0.274719        -0.493205
 O         2.988277        -0.003707        -1.875351
 C         2.555438        -1.667038         0.120830
 H        -0.719272         0.181416        -0.479184
 H        -0.308104         1.635709         0.411941
 H         0.415745         1.272944        -1.193828
 H         1.274342        -1.626615         1.938576
 H         2.213289         0.552327         2.711486
 H         3.760119        -0.491738         2.316272
 H         4.004704         1.874918        -0.306644
 H         2.599459        -0.788563        -2.467778
 H         1.944613        -2.464138        -0.398772
 H         3.523385        -2.064422         0.331785
