19
Iteration:  1621charge 0 multiplicity 1
 C         0.158512         0.608318        -0.269886
 C         1.431567         0.054919         0.062404
 C         1.759807        -1.367676         0.800169
 C         2.556108        -0.498536         1.863440
 C         2.624215         0.590789         0.832667
 O         3.001876         1.971312         1.061615
 C         2.873917        -0.035470        -0.573495
 O         3.346757         0.730424        -1.647902
 C         2.780194        -1.528751        -0.368991
 H        -0.039453         1.684775        -0.102619
 H        -0.124785         0.414140        -1.319882
 H        -0.595260         0.197098         0.493968
 H         1.042945        -2.153813         1.050181
 H         1.903605        -0.261715         2.723507
 H         3.480108        -0.813645         2.302475
 H         2.892348         2.589102         0.281448
 H         2.853266         0.556108        -2.544737
 H         2.380103        -2.025776        -1.299005
 H         3.752325        -1.979596        -0.259475
