19
Iteration:  1113charge 0 multiplicity 1
 C         0.118318         0.687031        -0.337866
 C         1.369495         0.004711         0.078072
 C         1.892046        -1.413166         0.716655
 C         2.610729        -0.565338         1.774329
 C         2.558846         0.589047         0.855960
 O         2.818302         1.889750         1.177430
 C         2.738805        -0.011833        -0.599477
 O         3.402124         0.855623        -1.442595
 C         2.858637        -1.447255        -0.527011
 H         0.383130         1.051229        -1.389718
 H        -0.770439         0.098479        -0.686586
 H        -0.007974         1.582935         0.211414
 H         1.465841        -2.391805         1.007336
 H         2.085136        -0.674951         2.844441
 H         3.660905        -1.006119         2.030836
 H         3.640201         2.084729         0.736122
 H         3.479799         0.500040        -2.352122
 H         2.320884        -2.047482        -1.267618
 H         3.769023        -1.916644        -0.310145
