19
Iteration:  2956
 C         0.100430         0.804414        -0.184833
 C         1.413363         0.129957         0.177894
 C         1.776948        -1.153850         0.944512
 C         2.794116        -0.351394         1.879526
 C         2.586139         0.606861         0.745853
 O         2.947555         1.980300         0.687903
 C         2.796203        -0.234668        -0.607319
 O         3.317591         0.522957        -1.625834
 C         2.711509        -1.689557        -0.233471
 H        -0.067115         1.798447         0.186184
 H        -0.076271         0.936712        -1.236567
 H        -0.764059         0.268922         0.239725
 H         1.086852        -1.848044         1.476979
 H         2.362890        -0.216161         2.951328
 H         3.769951        -0.873226         1.809569
 H         3.794441         2.038415         0.338768
 H         2.923228         0.371848        -2.600104
 H         2.250516        -2.434856        -0.981407
 H         3.656873        -2.118702         0.244447
