19
Iteration:  3207charge 0 multiplicity 1
 C         0.175899         0.823679        -0.212665
 C         1.390593         0.016886         0.082112
 C         1.842519        -1.247552         0.907677
 C         2.672414        -0.404063         1.904448
 C         2.680327         0.618442         0.738068
 O         2.932598         1.902623         0.834261
 C         2.722220        -0.153116        -0.617286
 O         3.244806         0.543522        -1.588053
 C         2.802414        -1.569462        -0.260025
 H        -0.840814         0.299324        -0.028267
 H         0.420340         1.828445         0.280388
 H         0.215075         1.059018        -1.354079
 H         1.269433        -2.057604         1.311905
 H         2.051724         0.044998         2.773657
 H         3.695421        -0.568901         2.249690
 H         3.305001         2.360035         0.077025
 H         2.881921         0.143824        -2.518805
 H         2.271948        -1.899036        -1.092614
 H         3.776939        -2.059053        -0.049985
