19
Iteration:  3983
 C         0.169003         0.885632        -0.337759
 C         1.364350         0.024420         0.150190
 C         1.766345        -1.193407         1.017182
 C         2.707903        -0.383445         1.911375
 C         2.656799         0.641167         0.716028
 O         3.076337         1.971700         0.760378
 C         2.702004        -0.173745        -0.595919
 O         3.105627         0.487970        -1.673902
 C         2.867819        -1.654140        -0.180552
 H         0.151999         1.836650         0.196826
 H         0.037480         1.055824        -1.435161
 H        -0.667079         0.330888        -0.060151
 H         1.101194        -2.032914         1.289471
 H         2.193321         0.171167         2.717703
 H         3.685215        -0.877011         2.217630
 H         4.029607         2.096569         0.674732
 H         2.955276         0.122616        -2.485296
 H         2.311533        -2.443996        -0.771747
 H         3.797624        -2.058270         0.193395
