19
Iteration:  3215charge 0 multiplicity 1
 C         0.161738         0.847565        -0.235142
 C         1.341773        -0.040996         0.111990
 C         1.864948        -1.232070         0.941481
 C         2.695953        -0.413975         1.954631
 C         2.596673         0.605576         0.708973
 O         2.949932         1.914342         0.805625
 C         2.761121        -0.141607        -0.549184
 O         3.296562         0.591484        -1.626140
 C         2.770906        -1.569865        -0.295930
 H        -0.763595         0.466773         0.188589
 H         0.291131         1.836194         0.263604
 H         0.185814         0.944623        -1.291203
 H         1.212001        -2.141759         1.259124
 H         2.091844        -0.044940         2.742899
 H         3.668354        -0.788159         2.178986
 H         3.305472         2.313863        -0.047507
 H         3.062349         0.201905        -2.556922
 H         2.233469        -2.184843        -1.035815
 H         3.774916        -2.040257        -0.119676
