19
Iteration:   549charge 0 multiplicity 1
 C         0.206855         0.636317        -0.459142
 C         1.450702         0.070980         0.054030
 C         1.806998        -1.397078         0.512341
 C         2.603428        -0.800361         1.716408
 C         2.552866         0.486881         0.915160
 O         2.696789         1.885494         1.389977
 C         2.804651         0.084799        -0.544508
 O         3.320810         1.001351        -1.380164
 C         3.018008        -1.434683        -0.525488
 H        -0.749603         0.644024         0.104783
 H         0.460210         1.708076        -0.718828
 H         0.043172         0.098847        -1.412708
 H         1.128113        -2.374535         0.329738
 H         2.073612        -0.705292         2.692533
 H         3.530368        -1.317944         1.915545
 H         3.574071         2.110466         0.998677
 H         2.934749         0.964952        -2.344385
 H         2.685230        -1.968788        -1.403781
 H         4.031399        -1.785383        -0.224618
