19
Iteration:  3845
 C         0.053642         0.666632        -0.313662
 C         1.389429         0.090648         0.077197
 C         1.726838        -1.255038         0.954379
 C         2.619570        -0.468288         1.994025
 C         2.785789         0.641135         0.752814
 O         3.225386         1.929369         0.704464
 C         2.717536        -0.071841        -0.490090
 O         3.160643         0.630847        -1.648835
 C         2.753134        -1.549112        -0.185297
 H        -0.053758         0.564293        -1.415472
 H        -0.776409         0.197657         0.187136
 H        -0.023931         1.832296        -0.142692
 H         0.905082        -1.919677         1.286544
 H         1.929042        -0.023765         2.688660
 H         3.503833        -0.770882         2.439555
 H         3.881790         2.029185        -0.084375
 H         3.342133         0.000059        -2.469971
 H         2.175430        -2.074876        -0.917915
 H         3.717390        -2.128381         0.158859
