19
Iteration:  2871
 C        -0.011308         0.617290        -0.253085
 C         1.352678         0.119184         0.125637
 C         1.754684        -1.184793         0.935562
 C         2.658397        -0.303538         1.887288
 C         2.747195         0.681244         0.723265
 O         3.327167         1.963596         0.845772
 C         2.630918        -0.129062        -0.572431
 O         3.157883         0.542345        -1.786396
 C         2.795068        -1.670655        -0.081679
 H        -0.831647         0.397385         0.489694
 H         0.169404         1.657160        -0.585085
 H        -0.242954         0.112551        -1.233181
 H         0.987770        -1.714046         1.382294
 H         2.124554        -0.008338         2.735201
 H         3.550265        -0.816648         2.241618
 H         3.769358         2.095983        -0.050330
 H         2.668597         0.371323        -2.531915
 H         2.489349        -2.510118        -0.748994
 H         3.753840        -1.917885         0.267161
