19
Iteration:  1934charge 0 multiplicity 1
 C         0.076791         0.629645        -0.323596
 C         1.279710         0.029217         0.223388
 C         1.830428        -1.304234         0.890922
 C         2.636590        -0.452861         1.827165
 C         2.607970         0.642851         0.758538
 O         3.112865         1.958258         0.854943
 C         2.662016        -0.062063        -0.577556
 O         3.344922         0.688645        -1.545200
 C         2.826972        -1.576968        -0.272218
 H         0.511133         1.516095        -0.760621
 H        -0.306201         0.130484        -1.221579
 H        -0.713616         0.809583         0.414153
 H         1.079203        -1.878499         1.414096
 H         2.048312        -0.357841         2.711869
 H         3.708635        -0.795504         2.093937
 H         3.656852         2.083162        -0.028055
 H         2.858928         0.532463        -2.468365
 H         2.304618        -1.957646        -1.089600
 H         3.808695        -1.982255        -0.238502
