19
Iteration:   455charge 0 multiplicity 1
 C         0.070900         0.608898        -0.366055
 C         1.437961         0.066256        -0.070365
 C         1.908522        -1.371919         0.420847
 C         2.482804        -0.851832         1.822662
 C         2.462848         0.464425         0.989456
 O         2.754571         1.813850         1.342867
 C         2.862819         0.107589        -0.557879
 O         3.465804         1.067773        -1.358131
 C         3.059541        -1.366679        -0.593121
 H         0.023520         1.688609        -0.452235
 H        -0.269608         0.181972        -1.311920
 H        -0.639320         0.251754         0.491087
 H         1.180392        -2.224854         0.509481
 H         1.589224        -0.824166         2.528175
 H         3.392214        -1.361800         2.281266
 H         3.104751         2.297924         0.523176
 H         3.075137         1.002781        -2.192190
 H         2.810441        -1.906161        -1.608276
 H         4.109930        -1.766523        -0.156422
