19
Iteration:  3980
 C         0.175791         0.877315        -0.331308
 C         1.357107         0.030578         0.123651
 C         1.780689        -1.213648         1.031451
 C         2.706769        -0.365018         1.917170
 C         2.648327         0.643972         0.709567
 O         3.072766         1.954318         0.751338
 C         2.701680        -0.179947        -0.576551
 O         3.106804         0.510751        -1.680288
 C         2.857606        -1.663383        -0.174336
 H         0.303607         1.869827         0.193473
 H         0.036702         1.087536        -1.444837
 H        -0.680815         0.271831         0.021024
 H         1.059602        -1.977311         1.302827
 H         2.201926         0.117352         2.761091
 H         3.618218        -0.841991         2.226024
 H         4.069244         2.061313         0.730059
 H         2.994953         0.123175        -2.635121
 H         2.266436        -2.423438        -0.825418
 H         3.838834        -1.974532         0.225544
