19
Iteration:  3060charge 0 multiplicity 1
 C         0.047431         0.696265        -0.305715
 C         1.323690         0.068138         0.061393
 C         1.864839        -1.177452         0.960553
 C         2.700943        -0.307437         1.924402
 C         2.598007         0.610373         0.762669
 O         3.141587         1.885755         0.824996
 C         2.744304        -0.113256        -0.542487
 O         3.271346         0.540844        -1.653794
 C         2.744355        -1.567979        -0.250898
 H         0.103430         0.989556        -1.427052
 H        -0.704815        -0.166026        -0.125657
 H        -0.169686         1.618367         0.284126
 H         1.200415        -1.961752         1.494376
 H         2.217218        -0.060574         2.843158
 H         3.681098        -0.687362         2.269663
 H         3.710430         2.183799        -0.001360
 H         2.627175         0.438935        -2.286586
 H         2.130356        -2.234077        -0.934193
 H         3.644457        -2.135241        -0.082364
