19
Iteration:  4686charge 0 multiplicity 1
 C         0.005071         0.696237        -0.169186
 C         1.392113         0.145119         0.196620
 C         1.800019        -1.054388         1.210567
 C         2.781257        -0.029939         1.877159
 C         2.743452         0.729868         0.600909
 O         3.410792         1.915931         0.534592
 C         2.709578        -0.305118        -0.582329
 O         3.128259         0.163852        -1.844786
 C         2.507400        -1.662448        -0.011075
 H        -0.734290         0.075052         0.306759
 H        -0.268197         1.805850        -0.092012
 H        -0.224013         0.604819        -1.261022
 H         1.022971        -1.669452         1.611091
 H         2.418124         0.575585         2.679220
 H         3.746575        -0.419015         2.248745
 H         2.846791         2.578938         0.079201
 H         3.713549         0.871478        -1.718100
 H         1.663611        -2.206394        -0.525345
 H         3.262083        -2.428173         0.237005
