19
Iteration:   935
 C         0.047182         0.751651        -0.413440
 C         1.397267         0.077048         0.066525
 C         1.842556        -1.492961         0.565454
 C         2.639088        -0.731894         1.836030
 C         2.617022         0.545984         0.872595
 O         2.779607         1.956203         1.222077
 C         2.802900         0.042122        -0.516929
 O         3.381098         0.834511        -1.440827
 C         2.974259        -1.467235        -0.465051
 H        -0.690918        -0.029565        -0.480621
 H        -0.415918         1.404003         0.255496
 H         0.011702         1.235018        -1.438117
 H         1.184173        -2.370103         0.681196
 H         2.198193        -0.484814         2.732269
 H         3.626075        -1.017165         2.151269
 H         3.347893         2.348271         0.410129
 H         3.067975         0.608023        -2.422606
 H         2.675334        -1.867317        -1.354326
 H         3.903728        -1.853818        -0.263082
