19
Iteration:   188charge 0 multiplicity 1
 C         0.074433         0.624824        -0.344626
 C         1.400577        -0.000521        -0.130342
 C         1.930019        -1.452309         0.333557
 C         2.512174        -0.793953         1.670995
 C         2.459786         0.463586         0.888761
 O         2.620737         1.708494         1.541155
 C         2.800383         0.153349        -0.605422
 O         3.542356         1.208655        -1.247294
 C         3.092741        -1.389778        -0.597545
 H         0.040314         1.593117         0.105289
 H        -0.126234         0.720288        -1.422331
 H        -0.769711        -0.026645        -0.024813
 H         1.321337        -2.206667         0.410781
 H         1.906132        -0.971002         2.518172
 H         3.513187        -1.227866         2.063702
 H         3.390063         2.017429         1.087402
 H         3.301986         1.092869        -2.152318
 H         2.849012        -1.836590        -1.552523
 H         4.041959        -1.765158        -0.202148
