19
Iteration:  2694charge 0 multiplicity 1
 C         0.011132         0.729766        -0.196122
 C         1.306933         0.096339         0.199048
 C         1.809492        -1.197134         1.012661
 C         2.758592        -0.241905         1.985464
 C         2.619032         0.668942         0.740524
 O         3.150729         1.952812         0.598372
 C         2.702440        -0.192572        -0.582003
 O         3.354328         0.407036        -1.658071
 C         2.703395        -1.617184        -0.256981
 H        -0.306169         0.681746        -1.269249
 H        -0.827771         0.222963         0.322513
 H         0.118021         1.881409         0.030547
 H         1.268326        -1.890745         1.729664
 H         2.160342         0.187385         2.845748
 H         3.793345        -0.667866         2.242681
 H         3.567666         1.928188        -0.256894
 H         2.662519         0.511633        -2.390106
 H         2.099704        -2.312778        -1.018728
 H         3.782981        -1.944778        -0.024397
