19
Iteration:  3348
 C         0.095918         0.690387        -0.449843
 C         1.357456         0.085413         0.105193
 C         1.775384        -1.270206         0.904323
 C         2.741610        -0.420142         1.939632
 C         2.716365         0.635483         0.810889
 O         3.142153         1.967143         0.955418
 C         2.656279        -0.196720        -0.552288
 O         3.182855         0.681054        -1.577869
 C         2.772514        -1.639493        -0.343002
 H        -0.166703         1.725213        -0.108325
 H         0.048663         0.697896        -1.542908
 H        -0.762865         0.159364        -0.117363
 H         1.108533        -2.042347         1.219754
 H         2.118644         0.111638         2.729247
 H         3.723402        -0.783446         2.285597
 H         3.593614         2.314852         0.096235
 H         2.959496         0.314246        -2.458724
 H         2.250536        -2.292582        -1.014282
 H         3.866675        -1.876715        -0.006728
