19
Iteration:  3257charge 0 multiplicity 1
 C         0.037097         0.695981        -0.190655
 C         1.375034         0.033339         0.089645
 C         1.748250        -1.192199         0.848090
 C         2.672417        -0.411531         1.857948
 C         2.671616         0.629472         0.799507
 O         3.009672         1.951951         0.773623
 C         2.720231        -0.128607        -0.587381
 O         3.399149         0.588843        -1.540856
 C         2.804555        -1.574688        -0.302834
 H        -0.472299         0.611806         0.746994
 H         0.261121         1.715042        -0.427769
 H        -0.544002         0.210252        -0.934413
 H         0.921115        -1.898951         1.263563
 H         2.190740         0.039439         2.687472
 H         3.655031        -0.976660         2.084555
 H         3.715157         2.057199         0.046874
 H         2.745679         0.503289        -2.166660
 H         2.163221        -2.204875        -1.034731
 H         3.802483        -2.014104        -0.069852
