19
Iteration:  4056
 C         0.063108         0.614034        -0.295355
 C         1.401495         0.199296         0.124626
 C         1.719729        -1.154654         0.993503
 C         2.694194        -0.280788         1.837718
 C         2.725873         0.643006         0.740008
 O         3.262512         1.978816         0.833150
 C         2.681781        -0.237053        -0.574092
 O         3.244652         0.493372        -1.685596
 C         2.637789        -1.612620        -0.135237
 H        -0.684524         0.148608         0.426432
 H         0.025652         1.746126        -0.398447
 H        -0.075385         0.167985        -1.366229
 H         1.092123        -1.928750         1.418868
 H         2.114428         0.186509         2.644925
 H         3.642772        -0.738447         2.081939
 H         3.513581         2.214364        -0.052585
 H         2.744876         0.426826        -2.437838
 H         2.150078        -2.345008        -0.843528
 H         3.607560        -2.170202        -0.032267
