19
Iteration:  1829charge 0 multiplicity 1
 C         0.157697         0.643355        -0.249979
 C         1.431378         0.067607         0.115474
 C         1.769447        -1.277772         0.828520
 C         2.687730        -0.536357         1.841450
 C         2.631111         0.615329         0.778327
 O         2.907069         2.029322         0.893049
 C         2.734919        -0.028228        -0.565761
 O         3.322623         0.674027        -1.598490
 C         2.812428        -1.610578        -0.267988
 H        -0.296997         0.079046        -1.051609
 H        -0.480002         0.946174         0.593703
 H         0.480804         1.477019        -0.812841
 H         1.048534        -1.997142         1.043097
 H         2.044314        -0.136439         2.743076
 H         3.559565        -1.181569         2.117892
 H         3.779441         2.034345         0.483619
 H         2.761493         0.716464        -2.355871
 H         2.338950        -2.131414        -1.152211
 H         3.715818        -2.218396         0.014767
