19
Iteration:  4922
 C         0.146173         0.822783        -0.235505
 C         1.371167         0.143363         0.269849
 C         1.828563        -0.981842         1.324671
 C         2.771131         0.014168         1.952870
 C         2.788068         0.740249         0.593709
 O         3.376728         2.020722         0.376142
 C         2.559035        -0.371648        -0.602646
 O         2.934156         0.055215        -1.845914
 C         2.603175        -1.705506         0.049806
 H        -0.596335         0.050213         0.135461
 H        -0.001163         1.766957         0.312081
 H         0.181228         0.886340        -1.350611
 H         1.207293        -1.586058         1.963243
 H         2.276541         0.727920         2.725685
 H         3.760044        -0.298638         2.356588
 H         4.179004         1.941504        -0.184104
 H         3.056482        -0.693975        -2.345526
 H         1.890063        -2.370741        -0.446404
 H         3.585546        -2.268696         0.190433
