19
Iteration:  4830charge 0 multiplicity 1
 C         0.118065         0.837866        -0.147114
 C         1.368684         0.125140         0.191871
 C         1.770620        -0.981829         1.221892
 C         2.862954        -0.016241         1.900581
 C         2.783687         0.689417         0.599660
 O         3.312368         2.040793         0.430434
 C         2.628380        -0.318085        -0.591409
 O         3.050964         0.020688        -1.858482
 C         2.548891        -1.748306         0.053297
 H         0.259961         1.956038        -0.020216
 H        -0.278034         0.686302        -1.157212
 H        -0.761418         0.614061         0.469669
 H         1.080822        -1.617611         1.859825
 H         2.498508         0.458652         2.755015
 H         3.800782        -0.494205         2.121307
 H         2.659049         2.585102         0.026516
 H         4.025117        -0.216272        -1.843508
 H         1.788562        -2.377969        -0.473475
 H         3.466358        -2.332712         0.433914
