19
Iteration:  1003
 C         0.086774         0.553116        -0.349793
 C         1.413248         0.043033         0.065362
 C         1.774163        -1.334169         0.584239
 C         2.525630        -0.644246         1.813375
 C         2.543060         0.570115         0.886228
 O         2.970178         1.919188         1.146448
 C         2.793001         0.004276        -0.515461
 O         3.386239         0.900250        -1.473208
 C         2.970737        -1.459704        -0.439204
 H        -0.171495         0.210895        -1.408093
 H        -0.734473         0.205168         0.286855
 H         0.126191         1.630213        -0.346432
 H         0.946441        -2.071336         0.504545
 H         1.912880        -0.565358         2.748959
 H         3.380486        -1.171697         2.083945
 H         3.648585         2.157104         0.570700
 H         2.760242         1.010116        -2.136889
 H         2.605821        -2.012411        -1.317450
 H         3.872943        -1.967913        -0.186425
