19
Iteration:   275charge 0 multiplicity 1
 C         0.084684         0.606335        -0.547588
 C         1.354041        -0.025406        -0.049744
 C         1.950364        -1.487666         0.479518
 C         2.481930        -0.797995         1.714687
 C         2.516151         0.460070         0.906138
 O         2.830492         1.727650         1.457755
 C         2.779790         0.144708        -0.530048
 O         3.363059         1.196545        -1.189230
 C         3.059142        -1.336827        -0.625568
 H        -0.832291         0.015043        -0.379197
 H         0.054210         1.650385        -0.190822
 H         0.110333         0.581457        -1.650532
 H         1.436779        -2.321611         0.540521
 H         1.720335        -0.797853         2.473987
 H         3.367556        -1.308802         2.133993
 H         3.567577         2.219997         0.890231
 H         3.163481         1.247985        -2.119861
 H         2.721599        -1.779554        -1.599787
 H         4.199427        -1.728902        -0.438308
