19
Iteration:  3681
 C         0.057957         0.754225        -0.157448
 C         1.359397         0.021348         0.198073
 C         1.686828        -1.289115         0.871067
 C         2.617014        -0.379231         1.877575
 C         2.681038         0.646241         0.710266
 O         3.081535         1.934596         0.695107
 C         2.782537        -0.104484        -0.567678
 O         3.373060         0.650386        -1.522042
 C         2.819640        -1.636783        -0.280039
 H        -0.526568         0.957881         0.698770
 H         0.302036         1.660259        -0.610903
 H        -0.521971         0.108251        -0.841919
 H         0.826628        -2.026292         1.162979
 H         1.803989        -0.073158         2.565385
 H         3.496383        -0.953985         2.194539
 H         3.495559         2.180749        -0.152499
 H         3.063833         0.300665        -2.419803
 H         2.336529        -2.165042        -1.076777
 H         3.730622        -2.176839        -0.014476
