19
Iteration:  1996
 C         0.104282         0.644872        -0.240707
 C         1.419368         0.094846         0.127798
 C         1.694379        -1.356498         0.856287
 C         2.667937        -0.397358         1.918566
 C         2.697435         0.604573         0.796140
 O         3.056806         2.023955         0.883163
 C         2.761542        -0.078404        -0.522282
 O         3.331018         0.618656        -1.675137
 C         2.768533        -1.578522        -0.320714
 H        -0.306433         1.396806         0.476123
 H         0.002635         0.920569        -1.273162
 H        -0.739326        -0.151201        -0.238399
 H         0.819500        -1.937905         1.305554
 H         1.874520        -0.117782         2.686153
 H         3.573622        -0.744136         2.348708
 H         3.493462         2.184202         0.059942
 H         2.855134         0.351452        -2.601772
 H         2.447642        -2.009050        -1.375960
 H         3.746535        -2.057530         0.000796
