19
Iteration:  2711charge 0 multiplicity 1
 C         0.029914         0.724621        -0.104918
 C         1.412497         0.159944         0.068568
 C         1.823632        -1.162333         0.995370
 C         2.649599        -0.250490         1.871216
 C         2.676026         0.662778         0.722468
 O         3.150837         1.996682         0.675646
 C         2.657024        -0.215846        -0.628710
 O         3.298351         0.413098        -1.676333
 C         2.774337        -1.717441        -0.136859
 H        -0.395105         0.448123        -1.064505
 H        -0.633875         0.328529         0.667782
 H        -0.078916         1.747967         0.070772
 H         0.944665        -1.737330         1.162148
 H         2.160220         0.142481         2.778153
 H         3.595357        -0.600567         2.237587
 H         3.586115         2.081689        -0.133095
 H         2.758169         0.531608        -2.466388
 H         2.263843        -2.386703        -0.736863
 H         3.670549        -2.214771         0.135253
