19
Iteration:   561
 C         0.124716         0.739667        -0.521036
 C         1.378281         0.041323         0.008962
 C         1.913905        -1.407484         0.507647
 C         2.622466        -0.804304         1.818409
 C         2.531419         0.526615         0.958214
 O         2.738318         1.799697         1.379249
 C         2.809292         0.041386        -0.559880
 O         3.351002         1.025248        -1.408407
 C         3.027033        -1.453628        -0.537848
 H        -0.657477         0.372102         0.129452
 H         0.121531         1.853404        -0.466917
 H        -0.140496         0.472381        -1.590350
 H         1.121275        -2.330521         0.693598
 H         1.960035        -0.814640         2.717651
 H         3.618606        -1.092184         2.012453
 H         3.338287         2.289409         0.852704
 H         2.863504         0.907233        -2.286849
 H         2.867801        -1.905173        -1.486253
 H         3.913507        -1.832588        -0.087463
