19
Iteration:  1176charge 0 multiplicity 1
 C         0.039722         0.619245        -0.295437
 C         1.430357         0.070143         0.037302
 C         1.923332        -1.405650         0.625684
 C         2.427948        -0.571826         1.911351
 C         2.578733         0.558865         0.957736
 O         2.973977         1.864096         1.101582
 C         2.845649         0.048259        -0.597823
 O         3.395435         0.865486        -1.550878
 C         2.922260        -1.496098        -0.456572
 H         0.146387         1.701691        -0.441034
 H        -0.498320         0.165252        -1.124138
 H        -0.698681         0.520740         0.549985
 H         1.206207        -2.326350         0.724662
 H         1.517275        -0.488984         2.494220
 H         3.283280        -0.890534         2.534122
 H         3.417537         2.141038         0.311495
 H         2.727771         0.877233        -2.271536
 H         2.413685        -1.844382        -1.380635
 H         3.894685        -2.083238        -0.290757
