19
Iteration:  4620
 C         0.225272         0.870879        -0.194640
 C         1.437890         0.078448         0.195985
 C         1.771804        -1.141931         1.199037
 C         2.692050        -0.077075         1.972534
 C         2.742729         0.626865         0.627369
 O         3.235788         2.001363         0.538412
 C         2.728559        -0.244337        -0.558303
 O         3.000872         0.214633        -1.860004
 C         2.623852        -1.719313        -0.064180
 H         0.204340         1.699540         0.470124
 H         0.332384         1.119848        -1.294526
 H        -0.637881         0.202504        -0.119869
 H         1.070134        -1.888875         1.577828
 H         2.147014         0.542227         2.699986
 H         3.762036        -0.283840         2.359778
 H         2.554289         2.406676        -0.028327
 H         3.976720        -0.027363        -2.126286
 H         1.958107        -2.381995        -0.675297
 H         3.504622        -2.263195         0.226025
