19
Iteration:  3235
 C         0.058701         0.828079        -0.218412
 C         1.398046         0.114708         0.168761
 C         1.812259        -1.373794         0.892511
 C         2.672905        -0.465981         1.862174
 C         2.643432         0.677018         0.824106
 O         2.966164         1.988475         0.750401
 C         2.676948        -0.167459        -0.615735
 O         3.379673         0.653999        -1.605194
 C         2.800313        -1.707484        -0.230160
 H        -0.703887         0.489471         0.419752
 H         0.294956         1.850268        -0.043543
 H        -0.111723         0.672058        -1.242204
 H         1.142711        -2.140927         1.449759
 H         2.101650        -0.136363         2.678518
 H         3.753431        -0.660977         2.088288
 H         3.360655         2.174326        -0.075379
 H         3.087447         0.298021        -2.553934
 H         2.353919        -2.192626        -1.188272
 H         3.760813        -2.176966         0.039977
