19
Iteration:  4296
 C        -0.016611         0.639846        -0.258172
 C         1.352971         0.151099         0.137240
 C         1.740439        -1.066387         1.085500
 C         2.752727        -0.247924         1.879901
 C         2.698755         0.605505         0.723480
 O         3.263428         1.952551         0.667134
 C         2.776644        -0.175312        -0.589303
 O         3.205819         0.468131        -1.705041
 C         2.603785        -1.666279        -0.110217
 H         0.044189         1.728434         0.054445
 H         0.030796         0.668104        -1.312889
 H        -0.978983         0.090757        -0.027117
 H         1.121267        -1.663709         1.746558
 H         2.440650         0.259741         2.892220
 H         3.728238        -0.826207         2.205674
 H         3.620651         2.164961        -0.222936
 H         3.278945        -0.180072        -2.444295
 H         2.112391        -2.310369        -0.769061
 H         3.516695        -2.232142         0.150331
