19
Iteration:   700
 C         0.205232         0.639202        -0.341766
 C         1.452378         0.010061         0.009269
 C         1.749765        -1.362307         0.541199
 C         2.562846        -0.748513         1.766923
 C         2.581284         0.554809         0.932042
 O         2.746020         1.893518         1.246523
 C         2.862678         0.029390        -0.516900
 O         3.388759         0.985637        -1.380506
 C         2.977613        -1.468577        -0.539550
 H         0.315973         1.098936        -1.372732
 H        -0.466777        -0.292201        -0.536515
 H        -0.235326         1.173768         0.473216
 H         1.169425        -2.234654         0.637335
 H         1.768774        -0.578844         2.569967
 H         3.612489        -1.196341         1.822079
 H         2.922102         2.439241         0.382376
 H         2.987041         0.809259        -2.225647
 H         2.517292        -1.816980        -1.473214
 H         3.876506        -1.991621        -0.231077
