19
Iteration:  1101
 C         0.179953         0.684231        -0.416817
 C         1.372052         0.028008         0.152963
 C         1.916554        -1.398900         0.653260
 C         2.628976        -0.687783         1.786824
 C         2.601845         0.547434         0.864067
 O         2.813851         1.928697         1.131718
 C         2.699247         0.044997        -0.533290
 O         3.360076         0.833413        -1.436339
 C         2.863529        -1.463543        -0.490385
 H         0.337186         1.081143        -1.454743
 H        -0.651930        -0.017830        -0.208466
 H        -0.190888         1.479348         0.206887
 H         1.143964        -2.200793         0.845531
 H         1.823519        -0.234455         2.508150
 H         3.662528        -1.036310         2.240874
 H         3.622747         2.245019         0.733485
 H         3.425750         0.386038        -2.244371
 H         2.386039        -1.790195        -1.411361
 H         3.831987        -1.839637        -0.432540
