19
Iteration:  3391
 C         0.140147         0.768970        -0.449651
 C         1.486715         0.071550         0.179912
 C         1.801060        -1.339224         0.880356
 C         2.676692        -0.489076         1.959911
 C         2.713797         0.599389         0.894753
 O         2.981661         2.027868         0.877237
 C         2.734029        -0.097323        -0.582436
 O         3.238564         0.651590        -1.662460
 C         2.754198        -1.661146        -0.284996
 H         0.315481         1.843560        -0.577829
 H        -0.181560         0.284685        -1.368271
 H        -0.690684         0.843111         0.162489
 H         1.062004        -2.002224         1.329484
 H         2.288681        -0.368879         3.019327
 H         3.703940        -0.969668         2.263733
 H         3.210097         2.204955         0.000696
 H         2.505938         0.724212        -2.197969
 H         2.225044        -2.105566        -1.145528
 H         3.686974        -2.245960         0.000102
