19
Iteration:   572charge 0 multiplicity 1
 C         0.067432         0.746480        -0.515327
 C         1.386628        -0.008973        -0.024652
 C         1.937798        -1.461227         0.575746
 C         2.564806        -0.692525         1.758682
 C         2.484288         0.468689         0.942057
 O         2.797099         1.750527         1.390324
 C         2.833658         0.101431        -0.512537
 O         3.391546         1.039773        -1.434022
 C         3.051995        -1.440324        -0.543548
 H        -0.823013         0.332101        -0.048696
 H         0.143884         1.746026        -0.053200
 H        -0.202822         0.782444        -1.630866
 H         1.245279        -2.389600         1.041341
 H         1.845151        -0.728756         2.620284
 H         3.465821        -1.089156         2.138321
 H         3.115352         2.154434         0.518136
 H         2.887997         1.004157        -2.193379
 H         2.651855        -1.887798        -1.426467
 H         4.059794        -1.811699        -0.317577
