19
Iteration:  4397
 C         0.148961         0.863565        -0.243490
 C         1.406741         0.129572         0.145860
 C         1.810036        -1.198766         1.159165
 C         2.717261        -0.183623         1.931358
 C         2.758362         0.680346         0.753364
 O         3.198783         1.982012         0.624593
 C         2.720333        -0.222235        -0.577513
 O         3.092730         0.210779        -1.838046
 C         2.633923        -1.670250        -0.148230
 H        -0.693453         0.374047         0.235077
 H         0.139890         1.925164         0.208165
 H         0.008793         0.809209        -1.330861
 H         1.129921        -1.935207         1.555155
 H         2.000467         0.280750         2.662973
 H         3.728359        -0.707130         2.328273
 H         2.449676         2.428964         0.248374
 H         3.910217         0.594917        -1.802123
 H         2.050315        -2.215309        -0.910705
 H         3.593096        -2.121998         0.052859
