19
Iteration:  1235
 C         0.032282         0.648944        -0.438720
 C         1.384359         0.103964         0.121273
 C         1.825955        -1.367575         0.751431
 C         2.620782        -0.640076         1.788516
 C         2.604228         0.569358         0.878261
 O         2.919016         1.876309         1.102329
 C         2.798231        -0.029523        -0.478280
 O         3.356939         0.892058        -1.493284
 C         2.920606        -1.533171        -0.442927
 H        -0.349795         1.624666         0.044607
 H         0.057991         0.917636        -1.564869
 H        -0.723068        -0.050272        -0.133391
 H         1.149755        -2.092098         1.066424
 H         2.165407        -0.402269         2.895907
 H         3.713644        -1.085545         1.976838
 H         3.220799         2.181639         0.192434
 H         3.134093         0.627033        -2.399334
 H         2.427152        -1.755074        -1.402653
 H         3.877578        -1.962652        -0.463651
