19
Iteration:  2234charge 0 multiplicity 1
 C         0.119198         0.756143        -0.310706
 C         1.297916         0.099952         0.190994
 C         1.968129        -1.271259         0.934406
 C         2.735227        -0.419623         1.878152
 C         2.606015         0.677713         0.785740
 O         3.028919         2.034703         0.755079
 C         2.605476        -0.196194        -0.557776
 O         3.317875         0.543719        -1.577595
 C         2.707453        -1.666314        -0.258439
 H         0.297622         1.117588        -1.344320
 H        -0.783684         0.065559        -0.441398
 H        -0.086598         1.669256         0.308496
 H         1.244637        -1.982935         1.364101
 H         2.138999        -0.139647         2.782820
 H         3.798280        -0.691076         2.164990
 H         3.694090         2.067027        -0.038316
 H         2.969993         0.393984        -2.409828
 H         2.229233        -2.318589        -0.957102
 H         3.798544        -1.885826        -0.120085
