19
Iteration:  3641
 C         0.046177         0.702740        -0.291526
 C         1.367608         0.134073         0.132305
 C         1.771129        -1.217481         0.895340
 C         2.695925        -0.419492         1.917403
 C         2.603318         0.616176         0.778219
 O         3.033585         1.976381         0.959987
 C         2.818887        -0.175482        -0.555266
 O         3.385693         0.553225        -1.744469
 C         2.740194        -1.624102        -0.294671
 H        -0.231864         1.593558         0.402746
 H         0.092613         1.240614        -1.302298
 H        -0.795646         0.015753        -0.331229
 H         1.143084        -1.998787         1.236287
 H         2.163527         0.059312         2.737219
 H         3.709346        -0.707810         2.287578
 H         3.646757         2.216745         0.267882
 H         2.685429         0.687789        -2.358912
 H         2.119083        -2.157628        -1.153339
 H         3.572668        -2.308462        -0.120265
