19
Iteration:  4911charge 0 multiplicity 1
 C         0.063621         0.798750        -0.205319
 C         1.450163         0.172080         0.176807
 C         1.812390        -0.995650         1.262308
 C         2.857232         0.009024         2.002808
 C         2.800249         0.718616         0.595517
 O         3.342533         1.972514         0.344297
 C         2.638864        -0.342548        -0.498081
 O         2.892162         0.103288        -1.846795
 C         2.603058        -1.737391         0.074199
 H        -0.942023         0.461582         0.209587
 H         0.080732         1.889334        -0.001255
 H        -0.098688         0.762958        -1.316650
 H         0.927685        -1.393671         1.711144
 H         2.213790         0.711717         2.673702
 H         3.794670        -0.275852         2.541293
 H         4.120851         1.764352        -0.144117
 H         3.335560        -0.624743        -2.398829
 H         1.855701        -2.400574        -0.347119
 H         3.573892        -2.277126         0.287384
