19
Iteration:  3183charge 0 multiplicity 1
 C         0.131543         0.815330        -0.232324
 C         1.423459         0.059549         0.180448
 C         1.815606        -1.236499         0.906316
 C         2.609872        -0.468571         1.925359
 C         2.647456         0.685054         0.747419
 O         2.993206         2.037635         0.911113
 C         2.846253        -0.185021        -0.638521
 O         3.222781         0.544957        -1.784963
 C         2.812140        -1.713238        -0.239987
 H        -0.685438         0.036591        -0.351832
 H        -0.047673         1.679318         0.489577
 H         0.263154         1.228339        -1.248206
 H         1.087069        -2.082679         1.229874
 H         2.030231        -0.051599         2.764914
 H         3.494624        -0.834769         2.383795
 H         3.496132         2.509185         0.264428
 H         2.546412         0.378004        -2.447965
 H         2.454042        -2.343945        -0.982221
 H         3.796658        -2.005508         0.184625
