19
Iteration:  3768
 C         0.204040         0.667313        -0.325516
 C         1.441685         0.155250         0.159693
 C         1.742657        -1.152531         0.868503
 C         2.713710        -0.392766         1.942437
 C         2.709747         0.697444         0.848846
 O         3.040967         1.988082         0.929448
 C         2.754210        -0.194771        -0.605335
 O         3.244182         0.472086        -1.722198
 C         2.690064        -1.649148        -0.326307
 H        -0.556549        -0.126391        -0.282296
 H        -0.175137         1.456418         0.340090
 H         0.077334         1.157972        -1.382808
 H         0.942739        -1.878208         1.303392
 H         2.200212        -0.053579         2.903876
 H         3.604505        -0.932370         2.298782
 H         3.141029         2.421811         0.103424
 H         2.652333         0.596692        -2.382036
 H         2.128942        -2.232194        -0.990032
 H         3.682016        -2.029564         0.116673
