19
Iteration:   470charge 0 multiplicity 1
 C         0.025164         0.567309        -0.421953
 C         1.374369         0.077761         0.020070
 C         1.808290        -1.391797         0.490004
 C         2.482114        -0.848278         1.708058
 C         2.556217         0.515922         0.933492
 O         2.741188         1.779672         1.345057
 C         2.904933         0.142635        -0.498427
 O         3.473506         1.067365        -1.403445
 C         3.100600        -1.379495        -0.500630
 H        -0.078060         1.687858        -0.148390
 H        -0.217567         0.523622        -1.544948
 H        -0.698727         0.048197         0.085207
 H         1.153909        -2.177140         0.412123
 H         1.974580        -0.859096         2.638297
 H         3.498055        -1.308768         1.812305
 H         3.469455         2.127929         0.881773
 H         2.861428         1.067405        -2.256370
 H         2.861837        -1.764973        -1.470956
 H         4.043622        -1.782065        -0.126065
