19
Iteration:  4569
 C         0.133630         0.829617        -0.329407
 C         1.367793         0.108504         0.212364
 C         1.756392        -1.105281         1.198872
 C         2.865149        -0.221503         1.858324
 C         2.682853         0.702162         0.709662
 O         3.264449         1.976547         0.578360
 C         2.642741        -0.179548        -0.516005
 O         3.051678         0.097001        -1.829373
 C         2.644896        -1.570179        -0.044953
 H         0.572143         1.884179        -0.519505
 H        -0.166969         0.251733        -1.131643
 H        -0.659877         1.000030         0.466620
 H         1.095043        -1.794658         1.680813
 H         2.399833         0.109350         2.847292
 H         3.724128        -0.805307         2.119350
 H         2.712078         2.377056        -0.175767
 H         3.784466         0.615988        -1.732948
 H         2.109239        -2.126827        -0.780988
 H         3.573873        -2.153426         0.255775
