19
Iteration:  1221
 C         0.047614         0.634401        -0.381573
 C         1.359434         0.071915         0.060630
 C         1.801977        -1.331626         0.691064
 C         2.697275        -0.647165         1.804899
 C         2.568215         0.570704         0.847001
 O         2.952839         1.887690         1.118247
 C         2.775676         0.024112        -0.604622
 O         3.352634         0.934508        -1.453674
 C         2.876310        -1.544872        -0.389930
 H        -0.150043         1.650694         0.042748
 H         0.005654         0.566345        -1.489771
 H        -0.736591        -0.080066        -0.204941
 H         1.105028        -2.192170         0.938460
 H         2.081714        -0.514794         2.694390
 H         3.650244        -1.142455         1.977689
 H         3.520235         2.211298         0.428635
 H         3.117471         0.608784        -2.347997
 H         2.582684        -2.351508        -1.111949
 H         3.742892        -1.911968         0.215894
