19
Iteration:  4437
 C         0.165170         0.871561        -0.257914
 C         1.370940         0.153956         0.140928
 C         1.753000        -1.175115         1.081563
 C         2.807085        -0.288998         1.934163
 C         2.767433         0.679221         0.672085
 O         3.156398         2.043188         0.502190
 C         2.701239        -0.293485        -0.566275
 O         3.146969         0.216293        -1.758872
 C         2.615817        -1.709109        -0.044499
 H        -0.506139        -0.038747        -0.531175
 H        -0.416621         1.394861         0.440663
 H         0.312410         1.653751        -1.064521
 H         0.937361        -1.571738         1.681104
 H         2.276800         0.155691         2.834801
 H         3.732354        -0.642186         2.188630
 H         3.034610         2.604301         1.325504
 H         3.240055         1.269512        -1.656613
 H         2.013492        -2.365120        -0.664276
 H         3.682763        -2.172046         0.099737
