19
Iteration:  1729charge 0 multiplicity 1
 C         0.087803         0.626201        -0.278766
 C         1.417774        -0.004864         0.075200
 C         1.846401        -1.378692         0.844429
 C         2.565456        -0.373173         1.905537
 C         2.582697         0.633334         0.782424
 O         3.051767         1.920948         1.076178
 C         2.797333        -0.059282        -0.576360
 O         3.361155         0.715029        -1.697193
 C         2.802891        -1.594123        -0.392522
 H        -0.606942         0.355911         0.503508
 H         0.132348         1.761983        -0.191683
 H        -0.251105         0.378731        -1.274595
 H         1.004578        -2.033741         1.066348
 H         1.844159         0.107800         2.744715
 H         3.516596        -0.700682         2.465149
 H         3.128745         2.483692         0.237129
 H         2.754121         0.826833        -2.511561
 H         2.258722        -2.116099        -1.185716
 H         3.744049        -2.121457        -0.138653
