19
Iteration:  1086charge 0 multiplicity 1
 C         0.106209         0.659090        -0.404981
 C         1.421207         0.079668         0.120169
 C         1.772910        -1.372319         0.649203
 C         2.598177        -0.674130         1.902056
 C         2.657720         0.563817         0.946107
 O         2.810481         1.912680         1.104595
 C         2.892799         0.004716        -0.488560
 O         3.308703         0.897391        -1.509890
 C         2.931432        -1.492401        -0.569293
 H         0.220273         0.944073        -1.440706
 H        -0.718518        -0.038225        -0.334462
 H        -0.255808         1.625515         0.108864
 H         1.095395        -2.202557         0.861515
 H         1.966969        -0.628461         2.710394
 H         3.538038        -1.231020         2.216549
 H         3.575476         2.166223         0.606919
 H         3.120877         0.451488        -2.363526
 H         2.444993        -1.922738        -1.452152
 H         3.862509        -2.020070        -0.177302
