19
Iteration:  3316
 C         0.054984         0.572499        -0.275839
 C         1.405234         0.079723         0.089595
 C         1.711799        -1.220553         0.826554
 C         2.613634        -0.382486         1.854024
 C         2.628778         0.650433         0.780531
 O         3.214368         1.891586         0.951312
 C         2.765029        -0.093506        -0.513760
 O         3.312215         0.611839        -1.684456
 C         2.759089        -1.501343        -0.277849
 H        -0.372812         1.407286         0.353989
 H        -0.183938         0.827924        -1.324826
 H        -0.678200        -0.244791        -0.086549
 H         1.041303        -1.955251         1.174544
 H         2.140271         0.084331         2.759252
 H         3.503731        -0.740900         2.277316
 H         3.540570         2.313153         0.147057
 H         2.548114         0.422725        -2.348596
 H         2.402752        -2.116468        -1.075120
 H         3.707400        -1.993955         0.148009
