19
Iteration:  3021
 C         0.168093         0.768282        -0.229886
 C         1.444637         0.071465         0.102393
 C         1.819893        -1.190272         0.924919
 C         2.612496        -0.456846         1.963025
 C         2.708198         0.715808         0.772664
 O         3.005277         2.085859         0.899913
 C         2.771244        -0.195258        -0.677111
 O         3.200637         0.434743        -1.807289
 C         2.761301        -1.614807        -0.194802
 H         0.345078         1.562376        -0.934465
 H        -0.612407         0.121687        -0.569717
 H        -0.252679         1.097090         0.727359
 H         1.179508        -2.043967         1.277695
 H         1.881324        -0.205855         2.831930
 H         3.528746        -0.934282         2.383227
 H         3.821514         2.234892         0.279498
 H         2.617543         0.155668        -2.593516
 H         2.311621        -2.255595        -0.980563
 H         3.780426        -1.924421         0.248865
