19
Iteration:  1032
 C        -0.008584         0.643762        -0.413637
 C         1.340481         0.063119         0.044100
 C         1.948496        -1.361838         0.673219
 C         2.498231        -0.596014         1.846948
 C         2.530736         0.563986         0.860712
 O         3.000921         1.797872         1.212285
 C         2.756443         0.009851        -0.560098
 O         3.398971         0.840353        -1.544983
 C         3.024672        -1.428806        -0.427294
 H        -0.091649         0.722805        -1.459103
 H        -0.841628         0.117042        -0.014650
 H        -0.157358         1.690584        -0.004761
 H         1.264921        -2.206401         0.699607
 H         1.695738        -0.491397         2.521082
 H         3.414958        -1.127831         2.356293
 H         3.352404         2.237292         0.432174
 H         2.710389         1.353196        -1.997684
 H         2.504293        -2.056027        -1.128704
 H         3.997753        -1.864167        -0.262473
