19
Iteration:   729
 C         0.114075         0.737949        -0.424467
 C         1.364755        -0.031583         0.019818
 C         1.924806        -1.432281         0.629337
 C         2.485587        -0.668377         1.851795
 C         2.553543         0.486709         0.876750
 O         2.829605         1.811313         1.285823
 C         2.834449         0.026502        -0.579136
 O         3.322619         1.026782        -1.455982
 C         3.068104        -1.474404        -0.519066
 H         0.480260         1.727954        -0.758849
 H        -0.298022         0.220213        -1.269960
 H        -0.592395         0.953250         0.429829
 H         1.412105        -2.382431         0.774280
 H         1.764682        -0.531410         2.597646
 H         3.369028        -1.063419         2.360631
 H         3.259089         2.295320         0.505633
 H         2.742455         0.936247        -2.343677
 H         2.549200        -2.011443        -1.334110
 H         4.058024        -1.968151        -0.386836
