19
Iteration:  1908charge 0 multiplicity 1
 C         0.069792         0.681161        -0.309533
 C         1.411071         0.097254         0.068295
 C         1.829657        -1.235479         0.758031
 C         2.590602        -0.400181         1.971374
 C         2.714429         0.555962         0.796693
 O         3.067907         1.953002         0.940838
 C         2.827255        -0.116566        -0.581240
 O         3.188497         0.695501        -1.605798
 C         2.833679        -1.606488        -0.243984
 H         0.109105         1.193011        -1.292953
 H        -0.513022        -0.190188        -0.468645
 H        -0.436725         1.211466         0.552221
 H         0.956589        -1.952459         0.935210
 H         1.957887        -0.316506         2.977854
 H         3.632915        -0.911961         2.166806
 H         3.310353         2.168701        -0.081133
 H         2.828341         0.240197        -2.460515
 H         2.280634        -2.116509        -1.123123
 H         3.784890        -2.086185         0.018486
