19
Iteration:   912
 C         0.179668         0.675896        -0.333392
 C         1.417376        -0.006358         0.017325
 C         1.853716        -1.341592         0.625357
 C         2.532255        -0.663451         1.787440
 C         2.533967         0.593381         0.871821
 O         2.811203         1.806933         1.235462
 C         2.821769         0.062442        -0.571222
 O         3.370961         0.921348        -1.534032
 C         2.998398        -1.533319        -0.421819
 H        -0.690734         0.084318        -0.241657
 H        -0.082701         1.492588         0.310462
 H         0.138249         1.029667        -1.406970
 H         1.094489        -2.106501         0.829235
 H         1.848355        -0.698125         2.562179
 H         3.474265        -1.025712         2.225407
 H         3.155226         2.273837         0.490925
 H         2.767589         1.048841        -2.299602
 H         2.737627        -2.134418        -1.212550
 H         3.924158        -1.743119        -0.080138
