19
Iteration:  3964
 C         0.197468         0.832672        -0.229853
 C         1.447292         0.067806         0.098049
 C         1.840217        -1.281699         0.982565
 C         2.622336        -0.271690         1.920694
 C         2.640210         0.583711         0.762225
 O         3.047095         1.903027         0.695882
 C         2.708465        -0.191470        -0.611594
 O         3.175844         0.615335        -1.730968
 C         2.741989        -1.674082        -0.133775
 H         0.292715         1.884696        -0.022657
 H         0.022341         0.718467        -1.268342
 H        -0.808170         0.658462         0.234694
 H         1.207878        -1.988047         1.577342
 H         1.911236         0.064133         2.716804
 H         3.681288        -0.508794         2.240186
 H         4.050675         1.911872         0.797589
 H         2.905329        -0.044108        -2.397057
 H         2.392189        -2.315647        -0.842260
 H         3.722182        -2.143171         0.146550
