19
Iteration:   395charge 0 multiplicity 1
 C         0.117349         0.661647        -0.363814
 C         1.403470         0.059609         0.011442
 C         1.856244        -1.441984         0.424213
 C         2.531311        -0.868215         1.704437
 C         2.430771         0.503527         0.924197
 O         2.682529         1.797044         1.318455
 C         2.834311         0.122793        -0.543038
 O         3.464266         1.122990        -1.271787
 C         3.105188        -1.432809        -0.579471
 H         0.133901         1.134035        -1.394256
 H        -0.564924        -0.213474        -0.348175
 H        -0.341209         1.389887         0.300318
 H         1.219907        -2.280376         0.536515
 H         1.995259        -0.909032         2.610085
 H         3.460456        -1.315856         1.924459
 H         3.376077         2.179636         0.677510
 H         3.264483         1.011585        -2.228495
 H         3.030443        -1.957813        -1.494127
 H         4.050698        -1.687092        -0.149499
