19
Iteration:    14
 C         0.048322         0.577534        -0.532271
 C         1.406353         0.036063        -0.071756
 C         1.823936        -1.439051         0.294470
 C         2.551792        -0.944634         1.595857
 C         2.588780         0.426292         0.943935
 O         2.671469         1.648421         1.549561
 C         2.848497         0.159525        -0.506959
 O         3.352826         1.352116        -1.105132
 C         3.137435        -1.349492        -0.600953
 H        -0.758623         0.127821        -0.084681
 H        -0.045141         1.693796        -0.277398
 H         0.003827         0.421287        -1.669437
 H         1.229580        -2.207856         0.258282
 H         2.045078        -0.937002         2.459280
 H         3.494750        -1.464684         1.703659
 H         3.455084         2.187804         1.071291
 H         3.405512         1.218387        -2.146081
 H         3.054196        -1.668452        -1.658728
 H         4.178267        -1.649118        -0.106147
