19
Iteration:  4008
 C         0.180749         0.787709        -0.359803
 C         1.411260         0.146020         0.206124
 C         1.808928        -1.243119         1.006108
 C         2.730584        -0.384679         1.910189
 C         2.678252         0.716928         0.782025
 O         3.083550         1.977817         0.842282
 C         2.719111        -0.072665        -0.548916
 O         3.186784         0.350341        -1.760132
 C         2.689803        -1.625769        -0.226391
 H        -0.202908         1.485358         0.405181
 H         0.223921         1.240650        -1.308317
 H        -0.584487        -0.026848        -0.389435
 H         0.981788        -1.887151         1.366370
 H         2.075680        -0.061225         2.753862
 H         3.721853        -0.864266         2.216074
 H         3.560070         2.384536         0.057695
 H         2.618970         0.226071        -2.630598
 H         2.308731        -2.214915        -0.990179
 H         3.674948        -2.113550         0.067385
