19
Iteration:   556
 C         0.153104         0.707443        -0.495813
 C         1.414083         0.068438         0.023159
 C         1.859799        -1.404983         0.511240
 C         2.618561        -0.810894         1.793706
 C         2.532501         0.492686         0.922604
 O         2.717810         1.844095         1.390844
 C         2.797878         0.056931        -0.548502
 O         3.329772         1.008632        -1.399916
 C         3.014270        -1.449114        -0.529888
 H        -0.726606         0.398030         0.140069
 H         0.270969         1.808868        -0.640192
 H        -0.023295         0.355094        -1.493928
 H         1.280357        -2.213474         0.423360
 H         2.034993        -0.799558         2.706759
 H         3.701709        -1.183746         1.995965
 H         3.496746         2.295409         0.877645
 H         2.942637         0.957648        -2.254767
 H         2.856804        -1.990616        -1.533036
 H         4.036358        -1.874371        -0.076944
