19
Iteration:  2565
 C         0.121219         0.656716        -0.207295
 C         1.324366         0.054463         0.187207
 C         1.773701        -1.152782         1.004520
 C         2.706897        -0.224106         1.885784
 C         2.794891         0.669664         0.680768
 O         3.158337         2.008363         0.729147
 C         2.704029        -0.191742        -0.579188
 O         3.197314         0.466535        -1.724456
 C         2.700675        -1.678711        -0.170294
 H        -0.379803         0.284014        -1.151714
 H        -0.648418         0.763678         0.615771
 H         0.199507         1.689426        -0.605298
 H         1.091602        -1.924156         1.428176
 H         2.047710         0.276900         2.670308
 H         3.622320        -0.946366         2.226181
 H         3.754468         2.103626         0.021163
 H         2.565063         0.367463        -2.400673
 H         2.252578        -2.433975        -0.760904
 H         3.626368        -2.066148         0.351260
