19
Iteration:  1775
 C         0.068353         0.677013        -0.256494
 C         1.360011         0.013141         0.143442
 C         1.744519        -1.317156         0.814223
 C         2.627182        -0.459045         1.825030
 C         2.626764         0.614765         0.805306
 O         2.990729         1.983099         0.952552
 C         2.696887        -0.027907        -0.583472
 O         3.372905         0.663737        -1.599002
 C         2.886363        -1.546149        -0.346605
 H        -0.772814         0.045783         0.014964
 H        -0.129439         1.591859         0.274281
 H         0.196234         0.999500        -1.326505
 H         1.262676        -2.194211         1.088765
 H         1.985526        -0.363167         2.867508
 H         3.664168        -0.899914         2.121114
 H         3.694729         2.107381         0.286815
 H         3.117211         0.212921        -2.409010
 H         2.523272        -2.129017        -1.243947
 H         3.841823        -1.854847        -0.049988
