19
Iteration:    77charge 0 multiplicity 1
 C         0.142642         0.501820        -0.540077
 C         1.451462         0.060465         0.011727
 C         1.904171        -1.450056         0.311024
 C         2.458370        -0.909418         1.668396
 C         2.540010         0.429911         0.992831
 O         2.728575         1.690959         1.606696
 C         2.852085         0.205040        -0.511840
 O         3.401741         1.281669        -1.222652
 C         3.053213        -1.326480        -0.707442
 H        -0.091344        -0.062137        -1.439925
 H        -0.643884         0.586456         0.189215
 H         0.235602         1.534807        -0.808848
 H         1.275024        -2.319448         0.333061
 H         1.610088        -0.936933         2.397581
 H         3.410758        -1.363411         2.092151
 H         2.934233         2.385294         0.864204
 H         3.009856         1.222880        -2.134181
 H         2.730366        -1.605711        -1.692700
 H         3.946623        -1.813573        -0.510982
