19
Iteration:   479charge 0 multiplicity 1
 C         0.050123         0.571423        -0.440840
 C         1.372244         0.011589         0.037441
 C         1.790534        -1.449451         0.421992
 C         2.553748        -0.768050         1.700562
 C         2.536888         0.496679         0.915155
 O         2.762559         1.818318         1.376842
 C         2.886570         0.149400        -0.522842
 O         3.462642         1.046926        -1.384145
 C         3.019095        -1.370829        -0.481763
 H        -0.162948         1.623785        -0.021704
 H        -0.003048         0.607358        -1.583280
 H        -0.745991        -0.073669        -0.082129
 H         1.158215        -2.241057         0.440599
 H         1.954897        -0.623524         2.602733
 H         3.594050        -1.247748         1.973190
 H         3.600250         2.162068         1.218678
 H         2.902095         1.240371        -2.260807
 H         2.829344        -1.842575        -1.520232
 H         4.081155        -1.815108        -0.092531
