19
Iteration:  3858
 C         0.028031         0.654821        -0.294453
 C         1.363342         0.087123         0.142946
 C         1.750827        -1.177755         0.892647
 C         2.628521        -0.316763         1.967912
 C         2.673960         0.643626         0.859051
 O         3.232256         1.944577         0.747827
 C         2.780485        -0.140895        -0.574787
 O         3.253666         0.599605        -1.683873
 C         2.705623        -1.637555        -0.233928
 H        -0.290465         0.767146        -1.349550
 H        -0.721424         0.059051         0.218490
 H        -0.009611         1.642789         0.262806
 H         1.090854        -1.944061         1.218545
 H         2.069328         0.067741         2.836714
 H         3.463394        -0.948328         2.314033
 H         3.636052         1.960040        -0.115303
 H         3.227591        -0.043573        -2.317125
 H         2.228729        -2.137156        -1.127084
 H         3.692654        -2.159888         0.013868
