19
Iteration:  3723
 C         0.025104         0.748402        -0.171589
 C         1.342336         0.083374         0.130810
 C         1.828155        -1.229293         0.873130
 C         2.600179        -0.340400         1.860825
 C         2.657684         0.632873         0.723602
 O         3.102187         1.946921         0.882640
 C         2.619310        -0.172304        -0.618249
 O         3.351473         0.519105        -1.627411
 C         2.832283        -1.604680        -0.300239
 H        -0.854717         0.273759         0.284086
 H         0.113480         1.823269         0.093826
 H        -0.058768         0.723332        -1.321736
 H         1.012814        -1.942682         1.302742
 H         2.009165         0.170516         2.697428
 H         3.602274        -0.660614         2.151391
 H         3.838103         1.944139         0.275162
 H         3.213121         0.119440        -2.435702
 H         2.429466        -2.227693        -1.050017
 H         3.900924        -1.783108         0.033299
