19
Iteration:   459
 C         0.040488         0.599728        -0.373663
 C         1.461235         0.080464        -0.061610
 C         1.882940        -1.342775         0.443250
 C         2.480490        -0.882143         1.807066
 C         2.475774         0.478541         0.953890
 O         2.746035         1.805068         1.346858
 C         2.846967         0.095112        -0.523280
 O         3.480705         1.079039        -1.374438
 C         3.085717        -1.365189        -0.582470
 H        -0.023791         1.758212        -0.317789
 H        -0.258639         0.178671        -1.388666
 H        -0.642677         0.252512         0.299466
 H         1.268494        -2.147328         0.591148
 H         1.731456        -0.891588         2.566389
 H         3.388240        -1.399925         2.196237
 H         3.190675         2.178975         0.542456
 H         2.906718         0.892884        -2.223388
 H         2.868756        -1.848286        -1.501194
 H         3.986836        -1.757442        -0.167195
