19
Iteration:  3150charge 0 multiplicity 1
 C         0.125687         0.654308        -0.275319
 C         1.393051         0.144940         0.158101
 C         1.793869        -1.213042         0.905932
 C         2.648021        -0.349062         1.888309
 C         2.668999         0.632665         0.692392
 O         3.091123         1.951073         0.946002
 C         2.752671        -0.109629        -0.572501
 O         3.219764         0.418262        -1.684735
 C         2.792977        -1.537165        -0.309954
 H        -0.514578         0.037245        -0.963747
 H        -0.663927         0.863524         0.537617
 H         0.123268         1.629358        -0.824088
 H         1.137705        -2.060951         1.385870
 H         1.982799         0.089145         2.668936
 H         3.577800        -0.719409         2.311988
 H         3.837619         2.314612         0.307264
 H         2.508585         0.618442        -2.250784
 H         2.467526        -2.127482        -1.103925
 H         3.795346        -1.921023         0.000515
