19
Iteration:  2324
 C        -0.009859         0.678135        -0.170698
 C         1.406333         0.060590         0.073870
 C         1.847853        -1.265937         1.012695
 C         2.605704        -0.279602         1.923949
 C         2.582869         0.682140         0.737625
 O         3.185437         1.969385         0.851458
 C         2.674745        -0.137696        -0.656553
 O         3.329711         0.453680        -1.795594
 C         2.807957        -1.568583        -0.160601
 H        -0.169937         1.769176         0.125062
 H        -0.357008         0.625020        -1.286857
 H        -0.790954         0.005734         0.270885
 H         1.051105        -1.886426         1.306925
 H         2.027440         0.241098         2.804776
 H         3.603193        -0.749478         2.171983
 H         3.852684         2.054715         0.088757
 H         2.754972         0.631328        -2.458880
 H         2.259441        -2.152828        -0.902396
 H         3.873179        -2.024675        -0.047165
