19
Iteration:  3698charge 0 multiplicity 1
 C         0.011164         0.770102        -0.176362
 C         1.355431         0.125030         0.031285
 C         1.790923        -1.247743         0.871899
 C         2.615112        -0.480878         1.920952
 C         2.595499         0.619021         0.794464
 O         3.093063         1.922027         0.699838
 C         2.715392        -0.148904        -0.565157
 O         3.370013         0.662469        -1.610369
 C         2.807371        -1.610683        -0.204796
 H        -0.607952         0.526497         0.773148
 H         0.259048         1.923320        -0.237119
 H        -0.523994         0.464072        -1.101285
 H         1.229129        -2.057927         1.264199
 H         2.154766        -0.104922         2.866917
 H         3.634866        -0.849489         2.151007
 H         3.680867         1.741898        -0.005670
 H         3.242513         0.148794        -2.432528
 H         2.379755        -2.283408        -1.013366
 H         3.776148        -1.852392         0.323007
