19
Iteration:  4115
 C         0.057782         0.729576        -0.228559
 C         1.379930         0.083066         0.127224
 C         1.731631        -1.132281         0.998969
 C         2.686753        -0.244677         1.923643
 C         2.659069         0.646811         0.761020
 O         3.258768         1.903546         0.683531
 C         2.633036        -0.232528        -0.601786
 O         3.223207         0.561346        -1.644323
 C         2.748689        -1.696695        -0.176329
 H        -0.723735         0.026917        -0.460913
 H        -0.381105         1.512079         0.460180
 H         0.218294         1.217201        -1.172628
 H         1.055673        -1.904449         1.390096
 H         1.966465         0.128812         2.635273
 H         3.521197        -0.540998         2.509016
 H         3.597268         1.897251        -0.275571
 H         3.662793        -0.055303        -2.382096
 H         2.187252        -2.305252        -0.888145
 H         3.749555        -1.938564        -0.000775
