19
Iteration:  2325
 C        -0.009692         0.673571        -0.175563
 C         1.401397         0.064766         0.073167
 C         1.849173        -1.271257         1.021002
 C         2.604366        -0.279786         1.918151
 C         2.590059         0.691873         0.741669
 O         3.183730         1.972674         0.853075
 C         2.676907        -0.145843        -0.667681
 O         3.327472         0.455896        -1.786172
 C         2.806081        -1.568066        -0.166140
 H        -0.178597         1.751692         0.134864
 H        -0.326416         0.639586        -1.282741
 H        -0.744276         0.009655         0.279472
 H         1.017138        -1.871922         1.294494
 H         2.032216         0.245677         2.826955
 H         3.622862        -0.780159         2.164606
 H         3.866928         2.038449         0.063762
 H         2.749205         0.634397        -2.475967
 H         2.258152        -2.206553        -0.873738
 H         3.837506        -1.989404        -0.046969
