19
Iteration:  3059
 C         0.048042         0.696749        -0.302717
 C         1.331270         0.065329         0.068515
 C         1.856772        -1.166970         0.956244
 C         2.706855        -0.303833         1.920712
 C         2.595388         0.606858         0.759053
 O         3.135296         1.880594         0.829073
 C         2.750718        -0.123549        -0.539093
 O         3.266967         0.536650        -1.656445
 C         2.745473        -1.564625        -0.249741
 H         0.075985         1.008977        -1.414644
 H        -0.709760        -0.138834        -0.153779
 H        -0.175384         1.619000         0.284012
 H         1.234357        -1.935868         1.465119
 H         2.185410        -0.042657         2.826452
 H         3.706514        -0.685384         2.269133
 H         3.742481         2.224731         0.024561
 H         2.621134         0.449003        -2.291408
 H         2.162653        -2.255239        -0.989259
 H         3.635585        -2.125181        -0.045111
