19
Iteration:  2425
 C         0.132109         0.695482        -0.325038
 C         1.378946         0.056999         0.104801
 C         1.777985        -1.197303         1.010063
 C         2.721303        -0.384946         1.907606
 C         2.655907         0.690828         0.766391
 O         3.153907         1.988273         0.800440
 C         2.725818        -0.130019        -0.571720
 O         3.156180         0.496165        -1.794473
 C         2.779763        -1.612975        -0.087598
 H        -0.667246         0.753810         0.479845
 H         0.503113         1.757342        -0.465004
 H        -0.411596         0.203090        -1.123727
 H         0.964060        -1.914718         1.249347
 H         2.192730         0.005491         2.861066
 H         3.763819        -0.580342         2.120249
 H         3.714002         2.068457        -0.076201
 H         2.349711         0.362731        -2.320540
 H         2.195267        -2.383657        -0.668463
 H         3.702010        -2.125238         0.281653
