19
Iteration:  2682charge 0 multiplicity 1
 C         0.035938         0.733829        -0.240018
 C         1.299812         0.046159         0.279289
 C         1.875590        -1.216751         1.045706
 C         2.770611        -0.310916         1.857272
 C         2.645342         0.667431         0.732329
 O         3.140387         1.962804         0.556443
 C         2.657219        -0.096750        -0.512288
 O         3.339410         0.422040        -1.643478
 C         2.685197        -1.590491        -0.169841
 H         0.076482         0.604271        -1.338970
 H        -0.912833         0.358405         0.184509
 H        -0.016352         1.888738         0.035788
 H         1.075625        -1.991014         1.290012
 H         2.163210         0.156323         2.717752
 H         3.743165        -0.621481         2.280107
 H         3.583376         1.965996        -0.290716
 H         2.801013         0.474620        -2.367703
 H         1.940913        -2.183629        -0.918970
 H         3.565932        -2.288128        -0.016888
