19
Iteration:  4566
 C         0.129826         0.814545        -0.315872
 C         1.328238         0.116272         0.195548
 C         1.797092        -1.086571         1.191865
 C         2.829110        -0.245604         1.855675
 C         2.693302         0.717566         0.707068
 O         3.280933         1.973070         0.585799
 C         2.627685        -0.180932        -0.516087
 O         3.052834         0.084556        -1.807305
 C         2.649306        -1.560047        -0.058772
 H         0.525336         1.794781        -0.586579
 H        -0.218211         0.222585        -1.149415
 H        -0.638319         1.104195         0.405130
 H         1.117639        -1.781753         1.703465
 H         2.434831         0.143733         2.842908
 H         3.874204        -0.760074         2.092320
 H         2.722470         2.314884        -0.111383
 H         3.911479         0.661317        -1.769158
 H         2.056975        -2.173465        -0.728364
 H         3.541032        -2.051876         0.212437
