19
Iteration:  1114
 C         0.108538         0.693683        -0.336550
 C         1.371310         0.000494         0.074423
 C         1.884841        -1.413326         0.720988
 C         2.616966        -0.559832         1.782225
 C         2.551335         0.588974         0.853969
 O         2.817164         1.886558         1.181785
 C         2.745552        -0.012985        -0.602071
 O         3.406096         0.863251        -1.442759
 C         2.859400        -1.454857        -0.527954
 H         0.366998         1.059725        -1.398277
 H        -0.772358         0.092961        -0.706884
 H        -0.002054         1.575850         0.225400
 H         1.478067        -2.369876         1.009419
 H         2.111386        -0.691174         2.837768
 H         3.633828        -0.991123         2.019774
 H         3.674489         2.088437         0.715902
 H         3.465238         0.473609        -2.400644
 H         2.339108        -2.074898        -1.278443
 H         3.793246        -1.941045        -0.318650
