19
Iteration:  2320
 C        -0.018507         0.689700        -0.162576
 C         1.395915         0.053869         0.080746
 C         1.842486        -1.223870         0.965856
 C         2.610934        -0.276336         1.943654
 C         2.573423         0.646719         0.724607
 O         3.184110         1.951436         0.844082
 C         2.682600        -0.104105        -0.604579
 O         3.345517         0.438308        -1.815620
 C         2.828810        -1.579523        -0.149062
 H        -0.094326         1.734281         0.090195
 H        -0.393039         0.583441        -1.185928
 H        -0.897405         0.077673         0.256111
 H         1.152419        -2.033169         1.394137
 H         2.041347         0.143548         2.665513
 H         3.550995        -0.587016         2.276229
 H         3.801960         2.117620         0.160971
 H         2.595161         0.655095        -2.553056
 H         2.269423        -2.000216        -1.025720
 H         3.847078        -2.094436        -0.027464
