19
Iteration:   882
 C         0.044307         0.675726        -0.364572
 C         1.416366        -0.065433        -0.060347
 C         1.898072        -1.364223         0.658757
 C         2.415296        -0.607913         1.870966
 C         2.688958         0.535881         0.867154
 O         2.879783         1.866030         1.224199
 C         2.859670         0.010497        -0.537142
 O         3.332849         0.961214        -1.447100
 C         3.044185        -1.555812        -0.562228
 H        -0.844993         0.202165         0.084647
 H        -0.021719         1.634924         0.116955
 H        -0.164837         0.807617        -1.448536
 H         1.216081        -2.191043         0.901202
 H         1.551003        -0.400521         2.517708
 H         3.150971        -1.020994         2.510209
 H         3.464853         2.391249         0.520719
 H         2.621229         0.979719        -2.246862
 H         2.427150        -1.990073        -1.388648
 H         4.129191        -1.876497        -0.364813
