19
Iteration:  4216charge 0 multiplicity 1
 C         0.205203         0.759842        -0.226402
 C         1.485778         0.104780         0.185715
 C         1.748594        -1.108268         1.000458
 C         2.640187        -0.268035         1.920325
 C         2.775655         0.613527         0.739183
 O         3.040447         2.052243         0.636698
 C         2.680575        -0.273634        -0.600770
 O         3.185982         0.360680        -1.759535
 C         2.749920        -1.717271        -0.144048
 H         0.158515         1.480490        -1.072493
 H        -0.641257         0.100159        -0.346347
 H         0.026916         1.455706         0.626081
 H         0.840356        -1.553628         1.492023
 H         1.991328         0.225921         2.655619
 H         3.552965        -0.713906         2.279812
 H         3.991295         2.112494         0.766641
 H         2.507869         0.790714        -2.284740
 H         2.187490        -2.398803        -0.773269
 H         3.658924        -2.132093         0.205857
