19
Iteration:  1231charge 0 multiplicity 1
 C         0.030482         0.655905        -0.430075
 C         1.386240         0.106890         0.106282
 C         1.828705        -1.347183         0.774119
 C         2.639391        -0.668928         1.771405
 C         2.575370         0.572595         0.873655
 O         2.926181         1.872692         1.102455
 C         2.806282         0.007939        -0.520323
 O         3.355420         0.910563        -1.478617
 C         2.913647        -1.541988        -0.425116
 H        -0.410920         1.593949        -0.052092
 H         0.045731         0.870854        -1.487958
 H        -0.719758        -0.056576        -0.071122
 H         1.074013        -2.159397         1.077310
 H         2.251930        -0.458550         2.701344
 H         3.561798        -1.115715         1.979365
 H         3.307868         2.188915         0.239991
 H         3.120136         0.569840        -2.438974
 H         2.463681        -2.019634        -1.368232
 H         3.964864        -2.043863        -0.249320
