19
Iteration:  1794
 C         0.044881         0.733640        -0.283756
 C         1.378232         0.073690         0.050982
 C         1.977771        -1.352013         0.819268
 C         2.640232        -0.435616         1.949586
 C         2.567028         0.583796         0.821275
 O         2.938966         1.922821         0.893165
 C         2.786082        -0.085079        -0.606397
 O         3.333054         0.727848        -1.555912
 C         2.797575        -1.625106        -0.360233
 H        -0.721147        -0.023582        -0.261347
 H        -0.370350         1.565875         0.416056
 H         0.123141         1.234072        -1.170844
 H         1.253217        -2.023529         1.230356
 H         2.047369         0.149366         2.685985
 H         3.524426        -0.786403         2.458525
 H         3.786536         1.907644         0.545072
 H         3.126673         0.343812        -2.343996
 H         2.127383        -1.915102        -1.191557
 H         3.774943        -2.265655        -0.358006
