19
Iteration:  1964
 C         0.015225         0.668457        -0.360441
 C         1.385305         0.178811         0.057602
 C         1.860073        -1.277805         0.930696
 C         2.758452        -0.395215         1.885822
 C         2.626170         0.587657         0.787266
 O         3.016943         1.913148         0.859902
 C         2.697080        -0.125732        -0.558731
 O         3.360506         0.646777        -1.520659
 C         2.757175        -1.627821        -0.310807
 H        -0.193811         1.749837        -0.130894
 H        -0.186413         0.518542        -1.375272
 H        -0.776175         0.108560         0.262909
 H         1.005174        -1.783527         1.481602
 H         2.190869        -0.282944         2.877210
 H         3.861419        -0.703561         2.131981
 H         3.502775         2.020263        -0.038497
 H         2.792464         0.838537        -2.195093
 H         2.171656        -2.070624        -1.199458
 H         3.730796        -2.138999        -0.320594
