19
Iteration:  4990
 C         0.170762         0.832872        -0.107681
 C         1.361622         0.123229         0.288812
 C         1.785054        -0.954498         1.294823
 C         2.885872         0.055257         1.912510
 C         2.793455         0.747969         0.508251
 O         3.277576         2.003537         0.250595
 C         2.597028        -0.377681        -0.514327
 O         3.098792        -0.000289        -1.800698
 C         2.518891        -1.749494         0.104955
 H         0.363265         0.945165        -1.189503
 H        -0.713436         0.096229        -0.000660
 H        -0.066036         1.871567         0.313760
 H         1.143816        -1.504917         1.982734
 H         2.395243         0.638577         2.770988
 H         3.799467        -0.428287         2.401450
 H         3.603607         1.893756        -0.658228
 H         2.341061         0.312933        -2.471188
 H         1.721423        -2.342970        -0.468210
 H         3.370192        -2.365078         0.347054
