19
Iteration:  3292
 C        -0.069122         0.582011        -0.204056
 C         1.408063         0.163002         0.101713
 C         1.842762        -1.191602         0.831549
 C         2.545489        -0.387768         1.865536
 C         2.693908         0.668769         0.846070
 O         3.177180         1.981319         0.928581
 C         2.656386        -0.173794        -0.607343
 O         3.398889         0.572622        -1.662655
 C         2.809646        -1.633964        -0.344810
 H        -0.470110         1.257597         0.560298
 H        -0.098689         1.202246        -1.108435
 H        -0.774203        -0.184281        -0.375327
 H         1.125578        -1.978252         1.211168
 H         1.842064        -0.023015         2.615839
 H         3.385701        -0.717560         2.490679
 H         3.629018         2.167327         0.113908
 H         2.822851         0.824433        -2.327462
 H         2.166130        -2.317915        -0.945108
 H         3.848026        -2.097595        -0.260113
