19
Iteration:  3168charge 0 multiplicity 1
 C         0.118730         0.720467        -0.259389
 C         1.432276         0.087250         0.050170
 C         1.793605        -1.248023         0.884395
 C         2.632254        -0.405265         1.957665
 C         2.702584         0.641984         0.832131
 O         3.023884         2.018195         0.950466
 C         2.759127        -0.103186        -0.586639
 O         3.223309         0.490696        -1.845327
 C         2.841819        -1.583566        -0.173773
 H        -0.684943         0.027188        -0.517565
 H        -0.241791         1.263691         0.613794
 H         0.368410         1.438128        -1.015556
 H         0.979720        -1.922209         1.227776
 H         1.941658        -0.130414         2.729426
 H         3.602853        -0.936037         2.099973
 H         3.647073         1.999146         0.113582
 H         2.470348         0.510516        -2.409921
 H         2.220909        -2.193364        -0.965896
 H         3.706327        -2.197655         0.079406
