19
Iteration:  4586charge 0 multiplicity 1
 C         0.237698         0.863872        -0.271435
 C         1.407222         0.183109         0.245405
 C         1.743390        -1.119677         1.087393
 C         2.800395        -0.200758         1.971433
 C         2.777028         0.695384         0.660057
 O         3.165221         2.022469         0.565786
 C         2.737162        -0.306828        -0.535643
 O         3.001390         0.188806        -1.855252
 C         2.607714        -1.772984        -0.005079
 H         0.240162         1.925440        -0.242991
 H        -0.036483         0.546502        -1.365059
 H        -0.651492         0.693816         0.325492
 H         0.970878        -1.666770         1.676563
 H         2.507731         0.392935         2.820433
 H         3.906686        -0.491087         2.156977
 H         2.706500         2.415555        -0.246889
 H         3.771949         0.721614        -1.898287
 H         1.993515        -2.477447        -0.662675
 H         3.520186        -2.247430         0.321833
