19
Iteration:  4097charge 0 multiplicity 1
 C        -0.004426         0.711201        -0.312420
 C         1.340591         0.164106         0.198704
 C         1.843450        -1.284469         0.990671
 C         2.547489        -0.298480         1.903001
 C         2.702484         0.703667         0.701644
 O         3.327289         1.881480         0.617699
 C         2.625427        -0.132535        -0.548812
 O         3.194215         0.526720        -1.567230
 C         2.749321        -1.566609        -0.185508
 H        -0.827534         0.020298        -0.008935
 H        -0.262490         1.500471         0.296897
 H         0.037211         0.978126        -1.398230
 H         1.132635        -2.040310         1.416225
 H         2.049001         0.122339         2.844463
 H         3.578829        -0.742134         2.256939
 H         4.007294         1.871955        -0.141153
 H         3.489822        -0.201161        -2.315558
 H         2.330943        -2.314110        -0.822486
 H         3.793392        -1.969124         0.185557
