19
Iteration:  2345charge 0 multiplicity 1
 C         0.026233         0.601108        -0.234880
 C         1.418335         0.162038         0.153553
 C         1.777277        -1.122850         0.871136
 C         2.722183        -0.317355         1.890925
 C         2.693475         0.659730         0.736762
 O         3.143436         1.995962         0.781319
 C         2.637121        -0.185078        -0.573930
 O         3.271969         0.501921        -1.627535
 C         2.748473        -1.689062        -0.208905
 H        -0.183149         1.637961         0.180892
 H        -0.169266         0.728418        -1.368188
 H        -0.802192        -0.098230         0.056499
 H         1.205327        -1.821867         1.394559
 H         2.002711         0.012454         2.655673
 H         3.679353        -0.668384         2.217695
 H         3.810508         2.211657         0.035450
 H         2.670395         0.432858        -2.456740
 H         2.407047        -2.388733        -0.962877
 H         3.785734        -1.998977         0.262799
