19
Iteration:  1325charge 0 multiplicity 1
 C         0.057722         0.685053        -0.330381
 C         1.343949         0.008109         0.077485
 C         1.893508        -1.403088         0.700243
 C         2.544777        -0.569221         1.901318
 C         2.549315         0.590280         0.885775
 O         2.991392         1.963216         1.138218
 C         2.747150        -0.003573        -0.643525
 O         3.353415         0.794988        -1.567201
 C         2.951474        -1.520729        -0.452144
 H        -0.756642         0.712663         0.403163
 H         0.305741         1.736999        -0.522670
 H        -0.456195         0.149583        -1.183187
 H         1.185834        -2.247943         0.776867
 H         1.711860        -0.292599         2.707053
 H         3.443890        -1.008627         2.507651
 H         3.853671         2.084619         0.678027
 H         2.861821         0.532128        -2.408314
 H         2.684365        -2.037462        -1.354676
 H         3.920607        -1.880943        -0.301976
