19
Iteration:  4664
 C        -0.010741         0.756845        -0.162628
 C         1.427868         0.195675         0.155207
 C         1.717509        -1.074351         1.105670
 C         2.773282        -0.126179         1.855299
 C         2.753714         0.767095         0.667326
 O         3.387527         1.972115         0.571165
 C         2.613621        -0.310015        -0.585800
 O         3.070053         0.095311        -1.852860
 C         2.644074        -1.670560         0.039598
 H        -0.618969         0.605187         0.704108
 H         0.183174         1.864247        -0.458839
 H        -0.464184         0.375630        -1.111754
 H         0.982446        -1.541695         1.738578
 H         2.435101         0.390607         2.753836
 H         3.678396        -0.697269         2.194746
 H         2.856020         2.531422        -0.028227
 H         3.990213         0.636398        -1.804805
 H         2.276212        -2.475607        -0.662301
 H         3.655128        -1.932606         0.359706
