19
Iteration:  3347
 C         0.084274         0.693556        -0.449142
 C         1.359471         0.084154         0.111714
 C         1.784912        -1.266536         0.903391
 C         2.730520        -0.425400         1.946216
 C         2.709477         0.638003         0.805459
 O         3.149833         1.968933         0.952581
 C         2.660444        -0.195763        -0.558460
 O         3.187656         0.685788        -1.590811
 C         2.776610        -1.645526        -0.337699
 H        -0.207979         1.698541        -0.105737
 H         0.024391         0.693713        -1.534848
 H        -0.757018         0.170803        -0.134698
 H         1.073570        -2.038522         1.244771
 H         2.142107         0.081190         2.762319
 H         3.741096        -0.812658         2.309925
 H         3.580847         2.340792         0.147176
 H         2.967513         0.325660        -2.420584
 H         2.252966        -2.306539        -1.039370
 H         3.841380        -1.901815         0.025653
