19
Iteration:  1832charge 0 multiplicity 1
 C         0.146062         0.652774        -0.244993
 C         1.417874         0.090465         0.094310
 C         1.755793        -1.297678         0.835189
 C         2.693968        -0.534885         1.852073
 C         2.635556         0.633119         0.800988
 O         2.911231         2.016738         0.896376
 C         2.737006        -0.017832        -0.556870
 O         3.323206         0.657063        -1.621395
 C         2.835596        -1.610127        -0.264201
 H        -0.220549         0.087741        -1.109402
 H        -0.484852         0.872008         0.541638
 H         0.391841         1.621382        -0.838700
 H         1.018147        -2.132865         0.998959
 H         2.075375        -0.243861         2.785899
 H         3.649563        -1.148925         2.102412
 H         3.746993         2.065847         0.456556
 H         2.728767         0.725272        -2.363705
 H         2.360630        -2.106331        -1.119677
 H         3.644702        -2.189355         0.046030
