19
Iteration:  4641charge 0 multiplicity 1
 C         0.092808         0.890237        -0.175924
 C         1.385853         0.176373         0.186749
 C         1.820307        -1.065723         1.071005
 C         2.715975        -0.201375         1.972883
 C         2.696120         0.706681         0.650639
 O         3.307128         1.969307         0.525753
 C         2.624207        -0.251151        -0.555858
 O         3.030659         0.105242        -1.857929
 C         2.736392        -1.665142         0.011321
 H        -0.284151         1.281607         0.736220
 H         0.332100         1.593491        -1.093061
 H        -0.594644         0.110217        -0.591715
 H         1.156692        -1.674827         1.700090
 H         2.187960         0.213052         2.784437
 H         3.674067        -0.605036         2.400263
 H         2.760176         2.569168        -0.061160
 H         3.924714        -0.005360        -1.959642
 H         2.163441        -2.385297        -0.686114
 H         3.739476        -2.066158         0.230575
