19
Iteration:  2745
 C         0.042753         0.761898        -0.086561
 C         1.393126         0.069502         0.056532
 C         1.794674        -1.215064         0.984681
 C         2.571800        -0.271760         1.956466
 C         2.741581         0.648016         0.708608
 O         3.141542         1.978503         0.745539
 C         2.698355        -0.120596        -0.595899
 O         3.267526         0.385162        -1.788479
 C         2.824092        -1.610429        -0.171971
 H        -0.646171         0.107580        -0.603813
 H        -0.339804         0.816526         0.921063
 H         0.095952         1.660824        -0.670379
 H         0.866605        -1.796525         1.275061
 H         2.012025         0.410747         2.643095
 H         3.508012        -0.606805         2.291662
 H         3.675222         2.015208        -0.073476
 H         2.906471        -0.037263        -2.497990
 H         2.185858        -2.148801        -0.812488
 H         3.727100        -2.067431         0.077574
