19
Iteration:   369charge 0 multiplicity 1
 C         0.082837         0.591996        -0.484431
 C         1.374240         0.002110         0.009040
 C         1.910128        -1.483262         0.402425
 C         2.502037        -0.846868         1.791117
 C         2.546524         0.511724         0.947622
 O         2.716060         1.816839         1.385087
 C         2.806558         0.206296        -0.452908
 O         3.488076         1.051071        -1.326628
 C         3.043278        -1.345584        -0.631615
 H         0.014470         0.794947        -1.588927
 H        -0.742498        -0.018938        -0.053405
 H        -0.107681         1.586188        -0.085488
 H         1.335538        -2.468307         0.439242
 H         1.879379        -0.743354         2.719044
 H         3.451257        -1.319438         2.200432
 H         3.452380         2.194428         0.912630
 H         2.902528         1.139646        -2.167222
 H         2.657563        -1.638238        -1.621333
 H         4.027366        -1.727535        -0.546920
