19
Iteration:  4003charge 0 multiplicity 1
 C         0.124438         0.796928        -0.331050
 C         1.387441         0.182206         0.210661
 C         1.814550        -1.260062         0.957843
 C         2.719183        -0.379451         1.882621
 C         2.742550         0.671332         0.768970
 O         3.063614         1.999783         0.826206
 C         2.700323        -0.126827        -0.515550
 O         3.166483         0.376412        -1.750612
 C         2.740770        -1.644608        -0.185163
 H        -0.054370         1.752987         0.223890
 H         0.398823         1.233176        -1.384648
 H        -0.614894         0.017474        -0.430387
 H         1.026109        -1.887552         1.371235
 H         2.120567        -0.110367         2.751162
 H         3.633808        -0.875194         2.193296
 H         3.681580         2.275690         0.161686
 H         2.691228         0.121547        -2.502479
 H         2.271747        -2.216022        -1.101358
 H         3.736730        -1.893824         0.143339
