19
Iteration:  3721charge 0 multiplicity 1
 C         0.037370         0.752493        -0.170443
 C         1.337790         0.083368         0.120488
 C         1.834991        -1.235277         0.878680
 C         2.596722        -0.342949         1.853596
 C         2.647294         0.630691         0.737657
 O         3.101546         1.941029         0.873818
 C         2.608770        -0.181788        -0.629406
 O         3.349915         0.521680        -1.619073
 C         2.840350        -1.592689        -0.285588
 H        -0.866637         0.267525         0.301328
 H         0.071001         1.883865         0.082537
 H        -0.105075         0.698988        -1.298907
 H         1.004914        -1.852567         1.251100
 H         2.073807         0.106019         2.734019
 H         3.591454        -0.665203         2.198830
 H         3.896446         1.966812         0.239843
 H         3.266049         0.131997        -2.491165
 H         2.403029        -2.229423        -1.074617
 H         3.926830        -1.765882         0.015432
