19
Iteration:  4422charge 0 multiplicity 1
 C         0.203204         0.811421        -0.235208
 C         1.451557         0.150036         0.252174
 C         1.761168        -1.113071         1.083875
 C         2.721827        -0.233592         1.969684
 C         2.777590         0.681867         0.768439
 O         3.128737         2.022036         0.482831
 C         2.720404        -0.219015        -0.555724
 O         3.123104         0.178519        -1.816432
 C         2.608958        -1.710907        -0.171604
 H        -0.677330         0.194809        -0.300055
 H         0.036942         1.644146         0.533184
 H         0.406655         1.177707        -1.221271
 H         1.065655        -1.874469         1.491405
 H         2.173457         0.277618         2.731994
 H         3.694332        -0.753971         2.274880
 H         2.622755         2.517909         1.146557
 H         3.609458         1.030152        -1.763960
 H         1.994337        -2.203494        -1.006688
 H         3.435772        -2.320475         0.182502
