19
Iteration:  4159
 C         0.154179         0.778208        -0.230718
 C         1.400069         0.142917         0.226991
 C         1.791517        -1.187158         0.951876
 C         2.689791        -0.270828         1.916774
 C         2.758381         0.641186         0.724759
 O         3.040394         2.084641         0.773708
 C         2.673876        -0.203806        -0.576151
 O         3.252725         0.298629        -1.732322
 C         2.674034        -1.652395        -0.256994
 H        -0.274876         0.570157        -1.201464
 H        -0.662844         0.714740         0.614415
 H         0.320596         1.841256        -0.169474
 H         0.978516        -1.801061         1.423175
 H         2.244801         0.077852         2.813572
 H         3.606742        -0.736263         2.172577
 H         3.582340         2.329242        -0.041347
 H         3.423379        -0.462300        -2.470426
 H         2.135305        -2.333211        -0.954755
 H         3.578561        -1.997347         0.161326
