19
Iteration:  1847charge 0 multiplicity 1
 C         0.048951         0.760325        -0.367060
 C         1.415151         0.103991         0.141199
 C         1.831696        -1.297868         0.802651
 C         2.664231        -0.509171         1.903003
 C         2.604250         0.611504         0.877889
 O         2.947011         1.972791         0.953823
 C         2.812361        -0.104504        -0.540448
 O         3.321975         0.582352        -1.691479
 C         2.826525        -1.540333        -0.312007
 H        -0.482080         0.229279        -1.219228
 H        -0.649627         0.443297         0.525806
 H         0.024369         1.869099        -0.458440
 H         1.127549        -2.043045         1.258114
 H         2.253296        -0.370839         2.828868
 H         3.674912        -0.822098         1.978265
 H         3.634046         2.207413         0.322496
 H         2.579831         0.641911        -2.248674
 H         2.531697        -2.154362        -1.147735
 H         3.890942        -1.854431        -0.004576
