19
Iteration:  1676charge 0 multiplicity 1
 C         0.105889         0.660670        -0.373924
 C         1.346255         0.031452         0.109133
 C         1.794279        -1.254442         0.785670
 C         2.689282        -0.611127         1.807004
 C         2.581685         0.622048         0.884352
 O         2.997741         1.943097         0.913082
 C         2.756396        -0.025446        -0.532494
 O         3.270393         0.789775        -1.555200
 C         2.867284        -1.553919        -0.245030
 H        -0.258937         1.452096         0.293220
 H         0.292199         1.009427        -1.403837
 H        -0.686863        -0.159917        -0.707019
 H         1.220995        -2.044154         1.186326
 H         2.231236        -0.535030         2.862694
 H         3.659198        -1.139535         1.750264
 H         3.884142         1.982197         0.519103
 H         2.848696         0.710302        -2.448231
 H         2.423589        -2.145493        -1.062716
 H         3.724114        -1.961329         0.168865
