19
Iteration:  3688
 C         0.044238         0.757907        -0.136531
 C         1.329513         0.035421         0.142942
 C         1.733983        -1.271610         0.862667
 C         2.577461        -0.409430         1.855145
 C         2.666678         0.587328         0.775219
 O         3.090401         1.934395         0.667908
 C         2.772670        -0.117080        -0.510206
 O         3.377504         0.674685        -1.584553
 C         2.812192        -1.633690        -0.238480
 H        -0.743730         0.902097         0.681948
 H         0.201694         1.842358        -0.536482
 H        -0.509330         0.252490        -0.997138
 H         0.912312        -1.899271         1.201725
 H         2.107146        -0.051700         2.820366
 H         3.524668        -0.881651         2.149221
 H         3.598518         2.085735        -0.092257
 H         3.195261         0.301072        -2.406079
 H         2.508244        -2.226158        -1.122337
 H         3.807441        -2.140045         0.051330
