19
Iteration:  2051
 C         0.078142         0.722098        -0.233508
 C         1.350331         0.061061         0.110068
 C         1.751060        -1.255311         0.839848
 C         2.667261        -0.425638         1.859633
 C         2.661571         0.624225         0.754039
 O         3.032436         1.951869         0.870911
 C         2.752727        -0.118798        -0.564420
 O         3.251045         0.601672        -1.677661
 C         2.907729        -1.587089        -0.195743
 H        -0.730867         0.687440         0.543462
 H         0.311716         1.763037        -0.073193
 H        -0.198619         0.511277        -1.298376
 H         1.107209        -2.063935         1.206518
 H         2.023264        -0.051072         2.708806
 H         3.522462        -0.904487         2.198052
 H         3.668145         2.203721         0.147593
 H         2.748890         0.288175        -2.535277
 H         2.432163        -2.290995        -0.977716
 H         3.879707        -1.931054         0.240934
