19
Iteration:   615charge 0 multiplicity 1
 C         0.030379         0.557199        -0.327938
 C         1.470976         0.124422        -0.042957
 C         1.832879        -1.355265         0.539781
 C         2.426062        -0.807105         1.762584
 C         2.594500         0.531970         0.931157
 O         2.828156         1.829873         1.245371
 C         2.906387         0.019164        -0.550076
 O         3.416163         1.106909        -1.356835
 C         3.027539        -1.485682        -0.535800
 H        -0.676384        -0.217060        -0.633697
 H        -0.460310         1.071928         0.543314
 H         0.033090         1.209477        -1.216263
 H         1.021353        -2.248652         0.466408
 H         1.743397        -0.485794         2.637478
 H         3.306909        -1.218044         2.264004
 H         3.184803         2.211942         0.473338
 H         3.068116         0.875670        -2.277737
 H         2.663921        -1.923897        -1.493972
 H         4.072068        -1.953231        -0.187188
