19
Iteration:  4849charge 0 multiplicity 1
 C         0.044333         0.894736        -0.180717
 C         1.366357         0.228237         0.210073
 C         1.873077        -1.045116         1.325741
 C         2.883206        -0.030484         1.821694
 C         2.682106         0.717983         0.593612
 O         3.291826         1.937003         0.432688
 C         2.687522        -0.317671        -0.558128
 O         3.060337        -0.005051        -1.819381
 C         2.521766        -1.687028         0.054402
 H        -0.046370         1.797945         0.343239
 H         0.019010         1.112037        -1.303646
 H        -0.698687         0.150429         0.120610
 H         1.190928        -1.647241         1.895850
 H         2.371957         0.556651         2.606268
 H         3.873672        -0.339159         2.217601
 H         3.118535         2.205749        -0.460656
 H         4.007652         0.062734        -1.832259
 H         1.749582        -2.308051        -0.541964
 H         3.403764        -2.331473         0.018727
