19
Iteration:  4468charge 0 multiplicity 1
 C         0.046483         0.810178        -0.247973
 C         1.254444         0.071368         0.192589
 C         1.752490        -1.150379         1.121210
 C         2.788299        -0.161515         1.932466
 C         2.628097         0.648661         0.684904
 O         3.361462         1.881992         0.486183
 C         2.644586        -0.186485        -0.578778
 O         3.182114         0.223605        -1.759697
 C         2.675624        -1.608434        -0.078562
 H        -0.212321         0.384617        -1.288294
 H        -0.760491         0.659359         0.458836
 H         0.319053         1.855259        -0.510630
 H         1.004050        -1.703127         1.746024
 H         2.336982         0.370608         2.785050
 H         3.844647        -0.410736         2.072829
 H         3.215176         2.534235         1.152015
 H         3.508308         1.094389        -1.616490
 H         2.164823        -2.262020        -0.816609
 H         3.729058        -2.000439         0.154153
