19
Iteration:  1316
 C         0.102016         0.679615        -0.308832
 C         1.344875         0.043598         0.100844
 C         1.841974        -1.396382         0.647493
 C         2.486969        -0.604822         1.853505
 C         2.549447         0.621779         0.861988
 O         2.986032         1.952530         1.143381
 C         2.744844        -0.058296        -0.571573
 O         3.327185         0.806507        -1.588331
 C         2.974606        -1.498337        -0.409686
 H        -0.550789         0.855744         0.519139
 H         0.322140         1.579099        -0.833261
 H        -0.331140        -0.013794        -1.134720
 H         1.263678        -2.397940         0.709197
 H         2.058298        -0.271740         2.835799
 H         3.612189        -0.927625         2.011039
 H         3.870284         2.042151         0.702441
 H         2.872378         0.760258        -2.490317
 H         2.695898        -2.161330        -1.192485
 H         3.957795        -1.733508         0.011870
