19
Iteration:  1583charge 0 multiplicity 1
 C        -0.015678         0.737513        -0.258649
 C         1.368482         0.040213         0.011159
 C         1.839091        -1.371008         0.769616
 C         2.595254        -0.500844         1.856037
 C         2.563255         0.633713         0.804465
 O         2.997688         1.903153         1.119778
 C         2.752995        -0.069214        -0.639680
 O         3.399559         0.721392        -1.606212
 C         2.925895        -1.516812        -0.367951
 H         0.033711         1.605754        -0.935680
 H        -0.661235        -0.096276        -0.626303
 H        -0.478900         1.030109         0.667121
 H         1.248613        -2.243646         1.099602
 H         1.927580        -0.288457         2.751090
 H         3.654366        -0.893993         2.157107
 H         3.452104         2.253806         0.242048
 H         2.908261         0.559193        -2.523456
 H         2.638067        -2.192875        -1.147467
 H         3.898280        -1.850358         0.098160
