19
Iteration:  2680
 C         0.033594         0.736353        -0.247099
 C         1.329103         0.048089         0.293740
 C         1.866840        -1.233131         1.052057
 C         2.766392        -0.315336         1.845423
 C         2.675017         0.701674         0.728544
 O         3.127975         1.957647         0.559099
 C         2.637997        -0.120604        -0.517859
 O         3.337690         0.433313        -1.631911
 C         2.680388        -1.594411        -0.147078
 H         0.096782         0.640570        -1.337413
 H        -0.902585         0.306926         0.140025
 H         0.034366         1.856488        -0.025102
 H         1.102624        -2.001264         1.252862
 H         2.127250         0.076219         2.710607
 H         3.714586        -0.638972         2.149900
 H         3.629447         2.002893        -0.362898
 H         2.741328         0.453806        -2.443389
 H         1.943712        -2.066838        -0.890124
 H         3.523523        -2.245107        -0.027373
