19
Iteration:  2101
 C         0.144746         0.709092        -0.298181
 C         1.347525         0.026318         0.122491
 C         1.875920        -1.313955         0.979290
 C         2.695017        -0.373193         1.831399
 C         2.642760         0.605031         0.738065
 O         3.001225         1.982398         0.807157
 C         2.768938        -0.090479        -0.514963
 O         3.331265         0.626274        -1.563611
 C         2.657153        -1.636995        -0.321409
 H        -0.632212        -0.023436        -0.136379
 H        -0.223303         1.604770         0.277254
 H         0.227765         0.778730        -1.353569
 H         1.078866        -1.913956         1.517323
 H         2.260880         0.013284         2.765052
 H         3.803378        -0.679387         2.214456
 H         3.530387         2.185084        -0.030709
 H         2.716938         0.751795        -2.269722
 H         2.071013        -2.074081        -1.092025
 H         3.590505        -2.177029        -0.133329
