19
Iteration:  4688
 C        -0.018048         0.700348        -0.184282
 C         1.420820         0.147881         0.200350
 C         1.796934        -1.067890         1.209989
 C         2.782807        -0.021838         1.878188
 C         2.747316         0.729016         0.604899
 O         3.411171         1.917684         0.524140
 C         2.704949        -0.312706        -0.579061
 O         3.130561         0.167646        -1.836905
 C         2.487166        -1.664510        -0.016258
 H        -0.739816         0.012206         0.325518
 H        -0.214826         1.768560        -0.002081
 H        -0.158629         0.592753        -1.300921
 H         1.038106        -1.692743         1.686665
 H         2.388980         0.659263         2.726554
 H         3.776974        -0.443765         2.263737
 H         2.841335         2.540247         0.104820
 H         3.709926         0.885388        -1.721083
 H         1.686414        -2.134559        -0.541401
 H         3.278121        -2.379084         0.169904
