19
Iteration:   811
 C         0.072912         0.535382        -0.411350
 C         1.380266         0.062286         0.048769
 C         1.906002        -1.448690         0.695191
 C         2.579678        -0.554064         1.797298
 C         2.526245         0.578807         0.862250
 O         2.893737         1.878529         1.296418
 C         2.788003         0.015669        -0.562585
 O         3.486376         0.964030        -1.336648
 C         2.863470        -1.518829        -0.666543
 H        -0.493984         1.141264         0.345647
 H         0.052509         1.138693        -1.411894
 H        -0.559109        -0.314740        -0.704749
 H         1.114826        -2.223591         0.944083
 H         1.758146        -0.426580         2.579926
 H         3.654249        -0.878863         1.951674
 H         3.222561         2.189212         0.420572
 H         3.076129         0.992872        -2.315464
 H         2.255815        -1.787123        -1.526076
 H         3.771617        -2.036249        -0.675242
