19
Iteration:  2760
 C         0.087535         0.762781        -0.127245
 C         1.344148         0.132077         0.147903
 C         1.873314        -1.153884         0.963091
 C         2.642900        -0.249841         1.936207
 C         2.628014         0.678408         0.731037
 O         3.128349         1.959815         0.753297
 C         2.709542        -0.224820        -0.638359
 O         3.255607         0.366472        -1.723921
 C         2.760124        -1.603453        -0.238324
 H        -0.769224         0.115230        -0.438025
 H        -0.331900         1.385051         0.707934
 H         0.230212         1.615969        -0.928664
 H         1.351783        -2.068428         1.364305
 H         1.818233        -0.060416         2.655893
 H         3.468311        -0.679317         2.544890
 H         3.732510         2.226787        -0.051154
 H         2.977095        -0.168111        -2.552195
 H         2.329764        -2.413394        -0.976141
 H         3.831030        -1.955714        -0.000391
