19
Iteration:  2994charge 0 multiplicity 1
 C         0.174265         0.869412        -0.158121
 C         1.367099         0.049111         0.188399
 C         1.826900        -1.224457         0.933460
 C         2.633681        -0.302112         1.886895
 C         2.719359         0.659954         0.697408
 O         2.916203         1.944869         0.828841
 C         2.812387        -0.151641        -0.563508
 O         3.242569         0.407451        -1.737106
 C         2.775514        -1.607716        -0.291684
 H         0.470848         1.939306        -0.413059
 H        -0.184410         0.305019        -1.087161
 H        -0.663331         0.638129         0.517003
 H         1.295541        -2.099428         1.371144
 H         2.053862         0.064706         2.676578
 H         3.580542        -0.623074         2.336250
 H         3.854808         2.120012         0.489421
 H         2.646624        -0.079852        -2.401387
 H         2.273554        -2.113673        -1.112102
 H         3.742778        -1.986212        -0.069382
