19
Iteration:  3986charge 0 multiplicity 1
 C         0.168965         0.890930        -0.344324
 C         1.376661         0.035294         0.176538
 C         1.755450        -1.180931         0.988526
 C         2.708099        -0.398803         1.901169
 C         2.681302         0.631402         0.727160
 O         3.072687         1.995422         0.773921
 C         2.696463        -0.181401        -0.607310
 O         3.115702         0.474258        -1.661690
 C         2.860307        -1.639096        -0.184004
 H        -0.054139         1.808146         0.193446
 H         0.106110         0.999335        -1.384696
 H        -0.813743         0.350856        -0.119617
 H         1.165273        -2.063839         1.308883
 H         2.196131         0.194357         2.687674
 H         3.697459        -0.871049         2.196648
 H         4.006020         2.092670         0.575073
 H         2.816682        -0.030452        -2.495960
 H         2.420731        -2.399715        -0.712678
 H         3.798457        -2.167722         0.151374
