19
Iteration:   112charge 0 multiplicity 1
 C         0.041017         0.611580        -0.539215
 C         1.378190         0.036646        -0.082948
 C         1.914386        -1.471362         0.337921
 C         2.585931        -0.849977         1.648803
 C         2.514256         0.454326         0.939084
 O         2.675003         1.650665         1.555579
 C         2.842795         0.182429        -0.504641
 O         3.460399         1.208410        -1.167314
 C         3.077916        -1.361731        -0.651431
 H        -0.036250         0.918250        -1.520540
 H        -0.733712        -0.114793        -0.398175
 H        -0.044130         1.541057         0.033508
 H         1.386489        -2.313168         0.428521
 H         1.912443        -0.911879         2.460212
 H         3.628000        -1.134976         2.003050
 H         3.269731         2.241000         0.909984
 H         2.798471         1.622299        -1.844559
 H         2.796066        -1.714563        -1.613537
 H         3.925032        -1.782459        -0.317818
