19
Iteration:   492
 C         0.112700         0.549676        -0.460178
 C         1.377514         0.003947        -0.007699
 C         1.878345        -1.428484         0.488741
 C         2.583419        -0.700517         1.755609
 C         2.532536         0.552509         0.898768
 O         2.748301         1.837714         1.432069
 C         2.771857         0.092213        -0.578129
 O         3.451399         1.035601        -1.349759
 C         2.971584        -1.427966        -0.625769
 H        -0.149163         1.546962         0.082055
 H         0.184524         0.884037        -1.579772
 H        -0.658622        -0.109738        -0.376131
 H         1.273696        -2.277965         0.664190
 H         1.821595        -0.642533         2.507420
 H         3.558772        -1.066060         2.221462
 H         3.788585         1.807419         1.469974
 H         2.921954         1.200059        -2.065221
 H         2.717067        -1.845970        -1.593964
 H         3.930897        -1.841780        -0.190894
