19
Iteration:   621charge 0 multiplicity 1
 C        -0.000983         0.569830        -0.330321
 C         1.482448         0.086375        -0.022782
 C         1.824946        -1.361577         0.496184
 C         2.431363        -0.793888         1.817257
 C         2.560632         0.492678         0.866929
 O         2.834903         1.845552         1.227666
 C         2.937272         0.059861        -0.525571
 O         3.428087         1.101191        -1.359077
 C         3.016235        -1.463088        -0.497761
 H        -0.543660        -0.316713        -0.766399
 H        -0.517501         0.957554         0.563335
 H        -0.123430         1.334523        -1.118761
 H         1.161405        -2.117692         0.475503
 H         1.833685        -0.685388         2.689054
 H         3.364114        -1.374530         2.134316
 H         3.377873         2.319981         0.537777
 H         3.099367         0.883852        -2.328111
 H         2.569870        -1.885721        -1.408334
 H         3.877487        -2.017023        -0.209974
