19
Iteration:  1313charge 0 multiplicity 1
 C         0.108351         0.667552        -0.314926
 C         1.376055         0.055100         0.103915
 C         1.814328        -1.392726         0.645226
 C         2.498059        -0.608342         1.819808
 C         2.552396         0.617634         0.848543
 O         2.973970         1.934541         1.143286
 C         2.739095        -0.047189        -0.549832
 O         3.318068         0.807579        -1.585050
 C         2.994823        -1.492237        -0.392327
 H        -0.505798         0.898091         0.579068
 H         0.320441         1.568079        -0.958415
 H        -0.345013         0.016180        -1.073540
 H         1.273767        -2.302540         0.786157
 H         2.048455        -0.339422         2.876150
 H         3.596660        -0.940705         1.907637
 H         3.880034         2.019938         0.686213
 H         2.837707         0.802088        -2.526377
 H         2.653733        -2.185140        -1.143296
 H         3.889642        -1.687327         0.113396
