19
Iteration:  3863
 C         0.042501         0.659012        -0.252515
 C         1.356810         0.115869         0.153208
 C         1.770282        -1.166378         0.907611
 C         2.619413        -0.289559         1.944546
 C         2.635617         0.646229         0.814676
 O         3.227578         1.953609         0.783860
 C         2.780276        -0.150614        -0.580958
 O         3.282168         0.577128        -1.667445
 C         2.721732        -1.670623        -0.275378
 H        -0.180856         0.778656        -1.313415
 H        -0.764917         0.031487         0.212676
 H        -0.176618         1.594540         0.233825
 H         1.039226        -1.943268         1.263877
 H         1.990866         0.014411         2.804658
 H         3.540739        -0.910293         2.171583
 H         3.587862         1.904624        -0.169984
 H         3.220052        -0.085630        -2.471781
 H         2.148856        -2.185376        -1.060885
 H         3.653239        -2.095384         0.026454
