19
Iteration:  4391
 C         0.118518         0.848625        -0.250207
 C         1.397168         0.148826         0.118606
 C         1.812903        -1.186710         1.123720
 C         2.714724        -0.205507         1.942324
 C         2.776371         0.670843         0.746731
 O         3.211965         2.005544         0.654144
 C         2.659953        -0.257080        -0.578698
 O         3.084014         0.231074        -1.829514
 C         2.667856        -1.702428        -0.145485
 H        -0.713298         0.461772         0.369820
 H         0.207512         1.894110         0.029933
 H        -0.074484         0.946632        -1.325316
 H         1.178024        -1.938746         1.666547
 H         2.232491         0.340211         2.746389
 H         3.626890        -0.534753         2.297250
 H         2.554067         2.520546         0.118371
 H         4.044980         0.591589        -1.811485
 H         2.175890        -2.335167        -0.940670
 H         3.587767        -2.230850         0.248790
