19
Iteration:   823
 C        -0.072944         0.609835        -0.467801
 C         1.345794         0.072674         0.022525
 C         1.931910        -1.403439         0.634705
 C         2.639202        -0.643599         1.791287
 C         2.559111         0.554170         0.849509
 O         2.907297         1.904671         1.260688
 C         2.796473        -0.009481        -0.588185
 O         3.480442         0.960322        -1.303303
 C         2.861339        -1.521337        -0.585248
 H        -0.701313         0.902755         0.374704
 H         0.016034         1.450135        -1.211337
 H        -0.527296        -0.311463        -0.891688
 H         1.369267        -2.345136         0.951874
 H         2.092794        -0.559873         2.747450
 H         3.605442        -0.916418         2.256824
 H         3.279524         2.450613         0.614318
 H         3.154943         0.928753        -2.182093
 H         2.320085        -2.065389        -1.313161
 H         3.785846        -1.955316        -0.434629
