19
Iteration:  3311charge 0 multiplicity 1
 C         0.020496         0.578629        -0.265183
 C         1.400327         0.076670         0.088002
 C         1.728136        -1.216072         0.832740
 C         2.593644        -0.349665         1.925562
 C         2.657373         0.652350         0.727081
 O         3.213555         1.913302         0.960993
 C         2.749383        -0.079661        -0.564944
 O         3.305393         0.566447        -1.636146
 C         2.771166        -1.516289        -0.330511
 H        -0.276735         1.355527         0.412730
 H        -0.162853         0.890299        -1.297086
 H        -0.499010        -0.366098        -0.072022
 H         0.868258        -1.916366         1.157789
 H         2.048702         0.047151         2.773034
 H         3.608827        -0.859936         2.279557
 H         3.557583         2.319026         0.135245
 H         2.629278         0.522429        -2.267859
 H         2.546792        -2.150733        -1.254758
 H         3.664323        -1.952312         0.078124
