19
Iteration:  4217
 C         0.206924         0.752315        -0.233381
 C         1.483265         0.108746         0.186255
 C         1.761678        -1.104384         1.006296
 C         2.628939        -0.271367         1.929189
 C         2.782402         0.619008         0.734312
 O         3.042847         2.046435         0.632822
 C         2.675582        -0.273644        -0.597672
 O         3.187246         0.366061        -1.765103
 C         2.734526        -1.716200        -0.145584
 H         0.177025         1.510044        -1.050767
 H        -0.598219         0.099606        -0.339306
 H         0.026315         1.421383         0.650453
 H         0.859708        -1.568525         1.478615
 H         1.948619         0.226954         2.671897
 H         3.573931        -0.724581         2.276698
 H         3.981787         2.120452         0.744874
 H         2.503717         0.769457        -2.216309
 H         2.238369        -2.386448        -0.783220
 H         3.655112        -2.136626         0.207122
