19
Iteration:  3811charge 0 multiplicity 1
 C         0.129040         0.741531        -0.431207
 C         1.341629         0.049051         0.118644
 C         1.824837        -1.252089         0.975767
 C         2.752129        -0.309250         1.927088
 C         2.601746         0.586630         0.803039
 O         3.213242         1.927264         0.866990
 C         2.674032        -0.116596        -0.589672
 O         3.134951         0.607961        -1.619565
 C         2.739152        -1.642837        -0.218303
 H        -0.274813         0.207335        -1.315378
 H        -0.724281         0.907696         0.253925
 H         0.429362         1.816271        -0.775825
 H         0.966583        -1.923193         1.274122
 H         2.173016        -0.128997         2.836264
 H         3.728509        -0.518530         2.235271
 H         3.702510         1.989846        -0.007576
 H         2.916227         0.053909        -2.402352
 H         2.300401        -2.197871        -1.025467
 H         3.785528        -2.131304         0.043907
