19
Iteration:  2510charge 0 multiplicity 1
 C         0.036691         0.742626        -0.145694
 C         1.347163         0.123075         0.174235
 C         1.738880        -1.175265         1.030715
 C         2.742141        -0.346347         1.848279
 C         2.747405         0.603030         0.646595
 O         3.042927         2.032050         0.614476
 C         2.657058        -0.175327        -0.558563
 O         3.361972         0.455105        -1.560572
 C         2.755781        -1.631131        -0.228586
 H        -0.836659        -0.015428        -0.038308
 H        -0.305033         1.632329         0.509578
 H         0.175860         0.985284        -1.247287
 H         1.100578        -1.950477         1.434739
 H         2.415039         0.105614         2.825685
 H         3.806849        -0.969500         1.994417
 H         3.296505         2.113905        -0.282412
 H         3.079403         0.346941        -2.514860
 H         2.192917        -2.210574        -0.949427
 H         3.623700        -2.203506         0.292319
