19
Iteration:  1753charge 0 multiplicity 1
 C        -0.015218         0.666618        -0.275023
 C         1.422115         0.136240         0.074774
 C         1.808980        -1.235424         0.781285
 C         2.649469        -0.542813         1.813995
 C         2.637650         0.628334         0.765370
 O         2.998053         1.928168         1.019946
 C         2.818023        -0.068484        -0.571171
 O         3.316221         0.628352        -1.600376
 C         2.883482        -1.540357        -0.280836
 H        -0.748424         0.084124         0.299361
 H        -0.123412         1.665579         0.138198
 H        -0.258151         0.731479        -1.391311
 H         0.994158        -1.885999         0.878043
 H         1.966149        -0.359910         2.776483
 H         3.615884        -1.037603         2.182948
 H         3.157571         2.452895         0.150885
 H         2.892225         0.367728        -2.499995
 H         2.570003        -2.309320        -1.014879
 H         3.784106        -1.824971         0.164945
