19
Iteration:  4814charge 0 multiplicity 1
 C         0.170829         0.846179        -0.144373
 C         1.506947         0.242681         0.205590
 C         1.760750        -0.999367         1.162041
 C         2.783012        -0.168404         1.908946
 C         2.793190         0.778543         0.620697
 O         3.275251         2.013850         0.392541
 C         2.616954        -0.377853        -0.533124
 O         2.991911         0.001991        -1.891021
 C         2.585343        -1.722215         0.095614
 H         0.238453         1.860044        -0.511391
 H        -0.336951         0.244429        -0.958228
 H        -0.461159         0.896146         0.773923
 H         0.916046        -1.305573         1.719259
 H         2.278730         0.535682         2.671399
 H         3.729651        -0.605364         2.354963
 H         2.543289         2.645553         0.370291
 H         3.889048         0.056828        -2.016464
 H         2.056058        -2.493229        -0.526280
 H         3.595553        -1.986910         0.380277
