19
Iteration:  1128
 C         0.040338         0.754029        -0.386897
 C         1.327508         0.000203         0.014616
 C         1.862037        -1.375426         0.707862
 C         2.704104        -0.590118         1.843924
 C         2.485643         0.543324         0.850735
 O         2.830174         1.868952         1.200499
 C         2.816810        -0.013069        -0.569825
 O         3.439373         0.924512        -1.502801
 C         2.917078        -1.625024        -0.477221
 H         0.143299         1.400938        -1.263525
 H        -0.783601         0.045546        -0.389816
 H        -0.346697         1.368569         0.456777
 H         1.096224        -2.061191         0.978664
 H         2.169399        -0.345509         2.689763
 H         3.694805        -0.831990         2.003698
 H         3.567271         2.149317         0.679562
 H         3.209693         0.634863        -2.340966
 H         2.454244        -2.006476        -1.410509
 H         3.962992        -2.058198        -0.258682
