19
Iteration:  1745charge 0 multiplicity 1
 C        -0.004144         0.669232        -0.255328
 C         1.390267         0.117581         0.032797
 C         1.797524        -1.200203         0.783652
 C         2.604794        -0.476145         1.870202
 C         2.647587         0.616046         0.829160
 O         3.014492         1.913021         1.049212
 C         2.818864        -0.087069        -0.608022
 O         3.348493         0.679881        -1.652253
 C         2.903871        -1.617932        -0.291641
 H        -0.752640         0.085428         0.375553
 H        -0.126547         1.709313        -0.024524
 H        -0.272616         0.651172        -1.427262
 H         1.207736        -2.095915         1.116718
 H         2.000452        -0.349253         2.722655
 H         3.569246        -0.909205         2.094553
 H         3.001507         2.359446         0.088230
 H         2.676641         0.339050        -2.400613
 H         2.442788        -2.170920        -1.134485
 H         3.875378        -2.043256         0.008025
