19
Iteration:  1479charge 0 multiplicity 1
 C         0.031383         0.720194        -0.413114
 C         1.344785         0.074990         0.120389
 C         1.910033        -1.372231         0.771499
 C         2.619746        -0.523502         1.903067
 C         2.543492         0.621733         0.899881
 O         3.002463         1.928850         1.181178
 C         2.738357        -0.048786        -0.644828
 O         3.377340         0.721956        -1.632876
 C         2.877937        -1.597240        -0.459525
 H        -0.424792         0.230213        -1.287484
 H        -0.803845         0.655682         0.341333
 H         0.227561         1.859097        -0.657990
 H         1.401091        -2.323279         1.120505
 H         1.933632        -0.287741         2.767280
 H         3.576820        -0.831431         2.401021
 H         3.253488         2.364185         0.396234
 H         2.723106         0.856867        -2.313055
 H         2.572347        -2.265523        -1.432243
 H         4.004130        -1.857403        -0.133049
