19
Iteration:  1888charge 0 multiplicity 1
 C         0.138660         0.633602        -0.291559
 C         1.397641         0.068268         0.097407
 C         1.801648        -1.281542         0.921509
 C         2.582322        -0.387161         1.828545
 C         2.644938         0.630893         0.747953
 O         3.067436         1.941947         1.068821
 C         2.802370        -0.092190        -0.613793
 O         3.264153         0.685459        -1.702072
 C         2.827880        -1.631026        -0.324403
 H         0.016483         0.887684        -1.346154
 H        -0.700234         0.041605        -0.144080
 H         0.020433         1.514042         0.418868
 H         1.084860        -2.108453         1.278699
 H         1.873532         0.145944         2.537554
 H         3.372245        -0.932201         2.514915
 H         3.228701         2.264273         0.107746
 H         2.603495         0.462664        -2.502786
 H         2.443831        -2.295372        -1.085421
 H         3.739695        -1.990825         0.061397
