19
Iteration:   505
 C         0.097474         0.604360        -0.523901
 C         1.467388         0.056707         0.015697
 C         1.985947        -1.391749         0.587362
 C         2.504799        -0.686363         1.795985
 C         2.489605         0.523797         0.947592
 O         2.751395         1.795703         1.410568
 C         2.808533         0.037374        -0.601000
 O         3.405476         1.040955        -1.345953
 C         2.993732        -1.455053        -0.697053
 H        -0.295402         1.313271         0.243073
 H         0.173642         1.024162        -1.569913
 H        -0.679129        -0.182384        -0.576445
 H         1.201271        -2.260423         0.789115
 H         1.844604        -0.678127         2.673897
 H         3.477639        -1.030560         2.083431
 H         3.630589         1.991318         1.677869
 H         2.957965         1.232559        -2.305701
 H         2.397682        -1.880513        -1.451753
 H         3.936056        -1.861345        -0.779172
