19
Iteration:  4743charge 0 multiplicity 1
 C         0.023634         0.830314        -0.330692
 C         1.386845         0.099315         0.236362
 C         1.759018        -0.998306         1.264296
 C         2.863173        -0.144381         1.911007
 C         2.742503         0.716143         0.660810
 O         3.356163         1.857503         0.280940
 C         2.617627        -0.263493        -0.506609
 O         3.058388         0.177763        -1.766094
 C         2.620409        -1.674118         0.030214
 H        -0.381712         0.198912        -1.182864
 H        -0.632579         0.769147         0.491275
 H         0.327634         1.796807        -0.752882
 H         0.970146        -1.473872         1.893190
 H         2.385100         0.372547         2.799860
 H         3.802605        -0.710040         2.141026
 H         3.233631         2.411594         1.057189
 H         3.298504         1.075952        -1.800697
 H         2.085069        -2.362592        -0.555234
 H         3.449445        -2.132960         0.551184
