19
Iteration:  1790charge 0 multiplicity 1
 C         0.044380         0.719501        -0.267656
 C         1.344395         0.052762         0.081494
 C         1.975917        -1.325336         0.829587
 C         2.624992        -0.459801         1.929666
 C         2.556378         0.615494         0.816283
 O         2.949360         1.919684         0.905141
 C         2.801414        -0.097901        -0.586867
 O         3.347022         0.721421        -1.571123
 C         2.811758        -1.580654        -0.372525
 H        -0.855057         0.017189        -0.288019
 H        -0.212328         1.579062         0.410677
 H         0.052377         1.226401        -1.356946
 H         1.161094        -2.033619         1.255328
 H         1.989791        -0.073804         2.678560
 H         3.565174        -0.797169         2.365480
 H         3.914821         1.985808         0.464125
 H         3.135474         0.253615        -2.509078
 H         2.142794        -2.040661        -1.119343
 H         3.779412        -2.144965        -0.306964
