19
Iteration:  4057
 C         0.058768         0.605859        -0.296964
 C         1.406020         0.198070         0.126894
 C         1.720393        -1.153199         0.995215
 C         2.688487        -0.280924         1.844843
 C         2.726468         0.651265         0.741143
 O         3.264419         1.969864         0.826145
 C         2.682480        -0.228460        -0.574794
 O         3.241390         0.494278        -1.683784
 C         2.640911        -1.611885        -0.133580
 H        -0.696723         0.146956         0.400737
 H         0.040726         1.762653        -0.383047
 H        -0.101608         0.213107        -1.360997
 H         1.084680        -1.935254         1.397122
 H         2.135360         0.156444         2.673220
 H         3.622563        -0.743208         2.051775
 H         3.537697         2.208971        -0.058819
 H         2.775894         0.410115        -2.455645
 H         2.154296        -2.361274        -0.843339
 H         3.605033        -2.136049        -0.035354
