19
Iteration:  1613charge 0 multiplicity 1
 C         0.103026         0.647703        -0.227658
 C         1.473821         0.031366         0.083303
 C         1.722452        -1.286080         0.729292
 C         2.557249        -0.508223         1.867732
 C         2.654119         0.638618         0.802297
 O         2.989674         1.943699         1.074698
 C         2.842750        -0.021707        -0.586606
 O         3.341848         0.692371        -1.620514
 C         2.850529        -1.531133        -0.384446
 H         0.041939         1.747767        -0.372625
 H        -0.201273         0.204774        -1.143347
 H        -0.653043         0.124019         0.458788
 H         1.140261        -2.108475         1.024709
 H         1.965443        -0.271442         2.672469
 H         3.469813        -1.009939         2.172610
 H         2.784590         2.401353         0.242652
 H         2.799386         0.548292        -2.448298
 H         2.454675        -2.124529        -1.308544
 H         3.781176        -2.013889         0.128517
