19
Iteration:  1037
 C        -0.007445         0.647713        -0.394430
 C         1.310041         0.043562         0.049511
 C         1.962175        -1.347638         0.665132
 C         2.498552        -0.597095         1.851359
 C         2.594357         0.586500         0.815732
 O         2.982850         1.803593         1.246615
 C         2.754880        -0.008767        -0.601703
 O         3.395755         0.835583        -1.516518
 C         3.032556        -1.470343        -0.430652
 H         0.024443         0.777858        -1.542811
 H        -0.966637         0.133602        -0.056759
 H        -0.169404         1.642236        -0.031763
 H         1.221660        -2.174040         0.666712
 H         1.650096        -0.290260         2.579278
 H         3.369262        -0.994846         2.263684
 H         3.338877         2.176117         0.379287
 H         2.592562         1.289176        -1.863062
 H         2.397647        -1.911814        -1.255653
 H         4.078104        -1.809840        -0.171676
