19
Iteration:  4384charge 0 multiplicity 1
 C         0.101431         0.851654        -0.245505
 C         1.411261         0.142554         0.138671
 C         1.804156        -1.147016         1.017482
 C         2.716118        -0.235404         1.944704
 C         2.726582         0.661961         0.642031
 O         3.233655         2.026379         0.701651
 C         2.629051        -0.282005        -0.577695
 O         3.063266         0.264339        -1.813595
 C         2.721170        -1.745177        -0.086196
 H        -0.799484         0.552399         0.392789
 H         0.272289         1.934494        -0.096429
 H        -0.280490         0.831599        -1.326526
 H         1.173155        -1.715210         1.676908
 H         2.369264         0.299884         2.926164
 H         3.779902        -0.558559         2.359999
 H         2.779902         2.575295        -0.016701
 H         4.102256         0.460938        -1.636669
 H         2.213859        -2.452044        -0.679029
 H         3.643763        -2.238072         0.263974
