19
Iteration:  4872
 C         0.076787         0.812256        -0.144506
 C         1.380809         0.158470         0.253800
 C         1.771668        -0.989381         1.222386
 C         2.851210        -0.067512         1.947720
 C         2.806446         0.742745         0.640001
 O         3.324066         2.023031         0.307454
 C         2.570401        -0.312495        -0.574790
 O         3.000673         0.029906        -1.830467
 C         2.530224        -1.709445         0.095517
 H        -0.384409         1.374699         0.619522
 H         0.526356         1.503145        -0.917693
 H        -0.489740        -0.003901        -0.593223
 H         0.900852        -1.547664         1.660647
 H         2.525927         0.492533         2.795528
 H         3.764448        -0.622927         2.262373
 H         3.806037         2.012939        -0.572298
 H         4.010131         0.282065        -1.688993
 H         2.067040        -2.480365        -0.618965
 H         3.542653        -2.169699         0.213884
