19
Iteration:  4840
 C         0.068560         0.900539        -0.143750
 C         1.379968         0.131905         0.151611
 C         1.870705        -1.072844         1.255732
 C         2.839950        -0.011212         1.911507
 C         2.753877         0.737720         0.536340
 O         3.292583         1.965632         0.444675
 C         2.631600        -0.337356        -0.514304
 O         3.074019         0.016695        -1.849951
 C         2.496722        -1.682012         0.074384
 H        -0.012367         1.958584         0.126414
 H        -0.014105         0.793564        -1.265233
 H        -0.756304         0.340635         0.320921
 H         1.143861        -1.572248         1.947261
 H         2.662324         0.623615         2.685967
 H         3.828253        -0.409217         2.026627
 H         2.884895         2.509219        -0.215045
 H         4.006479        -0.096746        -1.912233
 H         1.763836        -2.210024        -0.637566
 H         3.456364        -2.358276         0.223935
