19
Iteration:     3charge 0 multiplicity 1
 C         0.098467         0.582803        -0.477732
 C         1.419394         0.002119        -0.056448
 C         1.920133        -1.467877         0.297557
 C         2.485506        -0.918014         1.642406
 C         2.485734         0.415100         0.974220
 O         2.663208         1.650145         1.538415
 C         2.863381         0.194114        -0.505354
 O         3.430939         1.300189        -1.122311
 C         3.102474        -1.293919        -0.696067
 H        -0.659920         0.301919         0.197304
 H         0.228428         1.680215        -0.599478
 H        -0.219518         0.203673        -1.501714
 H         1.347939        -2.281123         0.227360
 H         1.800238        -0.961104         2.400809
 H         3.436741        -1.371638         1.929802
 H         3.237529         2.238831         0.919156
 H         3.094087         1.419850        -2.077575
 H         2.885661        -1.589071        -1.747118
 H         4.160347        -1.695708        -0.419288
