19
Iteration:   754
 C         0.118696         0.683065        -0.437751
 C         1.357988        -0.045704         0.005325
 C         1.902285        -1.392578         0.583454
 C         2.534595        -0.637567         1.737489
 C         2.501640         0.528748         0.876124
 O         2.906604         1.818026         1.294350
 C         2.782402         0.026768        -0.547433
 O         3.292373         0.958161        -1.447015
 C         3.027373        -1.432513        -0.444573
 H         0.173634         1.760215        -0.009745
 H         0.034502         0.581386        -1.602291
 H        -0.727037         0.303499         0.148012
 H         1.252420        -2.218156         0.548616
 H         1.928156        -0.690893         2.718080
 H         3.455794        -0.995101         2.369694
 H         3.667873         2.133581         0.662994
 H         2.723389         1.052673        -2.206169
 H         2.999720        -2.063805        -1.338569
 H         3.927803        -1.725855        -0.011859
