19
Iteration:  2281charge 0 multiplicity 1
 C         0.148090         0.709132        -0.158229
 C         1.384369         0.137163         0.068478
 C         1.765379        -1.216141         0.919840
 C         2.628568        -0.398994         1.919233
 C         2.687349         0.700949         0.758954
 O         3.040430         2.016374         0.780684
 C         2.720258        -0.177739        -0.624314
 O         3.272655         0.526507        -1.704436
 C         2.829133        -1.686362        -0.174085
 H         0.266013         1.769197        -0.501035
 H        -0.344687         0.172184        -1.009452
 H        -0.351929         0.644428         0.789949
 H         1.160290        -1.975656         1.310939
 H         1.873258        -0.071428         2.827036
 H         3.657905        -0.830938         2.358611
 H         3.338889         2.239068        -0.217358
 H         2.744435         0.352522        -2.479323
 H         2.307955        -2.252862        -0.909234
 H         3.709654        -2.230749         0.180093
