19
Iteration:  4351
 C         0.094145         0.738866        -0.265038
 C         1.360790         0.136536         0.150676
 C         1.727556        -1.149655         1.040266
 C         2.716117        -0.234941         1.987245
 C         2.694774         0.655720         0.681780
 O         3.258987         1.937304         0.666036
 C         2.728754        -0.150718        -0.579941
 O         3.067314         0.338115        -1.830700
 C         2.698755        -1.626392        -0.066208
 H        -0.424077         1.008612         0.730217
 H         0.267892         1.711587        -0.700119
 H        -0.560288         0.012504        -0.840503
 H         1.043758        -1.746846         1.649642
 H         2.178279         0.304725         2.871259
 H         3.762604        -0.746404         2.081128
 H         3.781093         2.066303        -0.127132
 H         3.952457         0.114128        -1.781478
 H         2.169313        -2.190969        -0.762798
 H         3.676101        -2.063949         0.207316
