19
Iteration:    85
 C         0.155381         0.531660        -0.528541
 C         1.448319         0.079434        -0.026864
 C         1.840898        -1.418504         0.357882
 C         2.486316        -0.926066         1.652110
 C         2.504528         0.441602         0.996934
 O         2.716208         1.661695         1.592860
 C         2.854236         0.217799        -0.527833
 O         3.423587         1.298467        -1.228031
 C         3.101350        -1.372256        -0.678863
 H        -0.160727         0.014312        -1.574284
 H        -0.639017         0.147259         0.179596
 H         0.249480         1.623316        -0.671980
 H         1.014057        -2.345168         0.326325
 H         1.851959        -0.973072         2.662338
 H         3.521563        -1.280627         1.740983
 H         2.837431         2.419195         0.866561
 H         2.892398         1.474209        -2.107492
 H         2.700105        -1.797523        -1.663170
 H         4.129774        -1.960862        -0.405066
