19
Iteration:  1894charge 0 multiplicity 1
 C         0.096411         0.643628        -0.276416
 C         1.462033         0.082537         0.067369
 C         1.783011        -1.235484         0.884285
 C         2.587419        -0.434188         1.878691
 C         2.668385         0.646234         0.783728
 O         3.056180         1.906139         1.007286
 C         2.803767        -0.108678        -0.587768
 O         3.229396         0.705700        -1.700907
 C         2.861320        -1.640413        -0.296698
 H         0.057415         1.044849        -1.321734
 H        -0.808560        -0.095126        -0.251205
 H        -0.130639         1.498512         0.333385
 H         1.071492        -1.938114         1.219510
 H         1.872286         0.049612         2.585631
 H         3.394810        -0.805873         2.446653
 H         3.243547         2.389206         0.250461
 H         2.748780         0.444636        -2.452014
 H         2.345706        -2.290876        -1.082222
 H         3.821522        -2.212779         0.027507
