19
Iteration:  1483charge 0 multiplicity 1
 C         0.002735         0.729325        -0.415258
 C         1.315979         0.075398         0.138235
 C         1.952838        -1.322750         0.777595
 C         2.633813        -0.545432         1.905752
 C         2.528823         0.630895         0.873304
 O         2.992517         1.926076         1.194251
 C         2.758958        -0.073881        -0.657554
 O         3.380685         0.697104        -1.602605
 C         2.875630        -1.604278        -0.487610
 H        -0.339244         0.362189        -1.403175
 H        -0.789011         0.596479         0.248380
 H         0.269729         1.764737        -0.565224
 H         1.443655        -2.207476         1.069261
 H         2.003777        -0.273142         2.712881
 H         3.604886        -0.765533         2.495238
 H         3.260211         2.283117         0.266786
 H         2.656360         0.909849        -2.278231
 H         2.601659        -2.136391        -1.299040
 H         3.820033        -1.862874        -0.221063
