19
Iteration:   281charge 0 multiplicity 1
 C         0.101280         0.603576        -0.541748
 C         1.355698        -0.025367        -0.023248
 C         1.926005        -1.502052         0.463232
 C         2.480916        -0.797032         1.743987
 C         2.447695         0.449733         0.958910
 O         2.872599         1.735044         1.449390
 C         2.747619         0.171743        -0.521359
 O         3.375839         1.171992        -1.225491
 C         3.095052        -1.329884        -0.665484
 H        -0.821851        -0.013047        -0.455779
 H        -0.112748         1.626248        -0.182566
 H         0.347572         0.698591        -1.637136
 H         1.297744        -2.543248         0.574693
 H         1.725083        -0.906804         2.570733
 H         3.398054        -1.181672         2.230267
 H         3.424271         2.220040         0.873101
 H         3.266558         1.268154        -2.266457
 H         2.871236        -1.749964        -1.636881
 H         4.097848        -1.457138        -0.498501
