19
Iteration:  2201
 C         0.058964         0.617131        -0.290703
 C         1.387994         0.067861         0.102710
 C         1.816075        -1.142054         0.897621
 C         2.676388        -0.400145         1.868430
 C         2.705856         0.636141         0.722132
 O         3.089542         1.941394         0.837671
 C         2.781308        -0.074981        -0.540972
 O         3.273452         0.555560        -1.658037
 C         2.718752        -1.609041        -0.165094
 H         0.057497         0.662229        -1.352038
 H        -0.816416         0.152496         0.243595
 H        -0.058162         1.650080         0.120283
 H         1.052333        -1.890090         1.260902
 H         2.013706        -0.033072         2.690882
 H         3.666170        -0.884182         2.238125
 H         3.442164         2.242057        -0.039904
 H         2.429769         0.537694        -2.176476
 H         2.288673        -2.164524        -0.960065
 H         3.706063        -2.048488         0.063167
