19
Iteration:  3722charge 0 multiplicity 1
 C         0.031387         0.750203        -0.170367
 C         1.339940         0.083233         0.125631
 C         1.832544        -1.231910         0.875511
 C         2.598062        -0.341942         1.856810
 C         2.652867         0.631748         0.730752
 O         3.101707         1.944078         0.878495
 C         2.613100        -0.177951        -0.623725
 O         3.350709         0.519990        -1.624028
 C         2.836142        -1.598812        -0.293374
 H        -0.863593         0.269089         0.293592
 H         0.092967         1.859874         0.088505
 H        -0.080777         0.710354        -1.316635
 H         1.003251        -1.897692         1.279087
 H         2.041036         0.141852         2.719781
 H         3.596068        -0.660660         2.172996
 H         3.869244         1.952939         0.255797
 H         3.242897         0.132438        -2.450803
 H         2.416416        -2.224151        -1.061267
 H         3.920139        -1.772064         0.026410
