19
Iteration:  2735charge 0 multiplicity 1
 C         0.052999         0.679327        -0.052916
 C         1.374222         0.079816         0.087227
 C         1.696430        -1.191191         1.004633
 C         2.578605        -0.234929         1.847042
 C         2.782069         0.653979         0.698059
 O         3.148106         1.983005         0.721680
 C         2.798248        -0.160300        -0.591912
 O         3.279620         0.427410        -1.802402
 C         2.761191        -1.621666        -0.119898
 H        -0.612188         0.209962        -0.771365
 H        -0.498356         0.758766         0.881471
 H         0.120510         1.775376        -0.301313
 H         0.904621        -1.969269         1.362216
 H         1.994111         0.133080         2.735460
 H         3.414024        -0.661576         2.305236
 H         3.739318         2.246223        -0.065388
 H         2.782653         0.095501        -2.514356
 H         2.491984        -2.230949        -0.994914
 H         3.627950        -2.071498         0.270150
