19
Iteration:  3791
 C         0.128926         0.713491        -0.415785
 C         1.315618         0.126093         0.142998
 C         1.805537        -1.268422         1.011869
 C         2.701190        -0.403285         1.844463
 C         2.701299         0.678308         0.757984
 O         3.130069         1.953786         0.917055
 C         2.734743        -0.101437        -0.530891
 O         3.223691         0.530819        -1.666223
 C         2.741321        -1.663197        -0.238508
 H        -0.560163         0.101963        -0.998219
 H        -0.410242         1.327019         0.274697
 H         0.473444         1.563671        -1.124980
 H         1.271302        -2.127210         1.487649
 H         2.248803         0.018943         2.770004
 H         3.688466        -0.864145         2.117385
 H         3.278380         2.419684         0.008891
 H         2.423452         0.463268        -2.390370
 H         2.016796        -2.094836        -0.884117
 H         3.697143        -2.228943        -0.040550
