19
Iteration:   910charge 0 multiplicity 1
 C         0.208208         0.667652        -0.334365
 C         1.432648        -0.009055         0.018372
 C         1.859491        -1.362075         0.608990
 C         2.517026        -0.640204         1.777294
 C         2.518252         0.579322         0.851383
 O         2.818115         1.796706         1.244021
 C         2.812094         0.066080        -0.572165
 O         3.372141         0.926123        -1.527092
 C         2.990287        -1.526780        -0.414847
 H        -0.693130         0.089169        -0.168126
 H        -0.105771         1.488293         0.364377
 H         0.139932         0.989868        -1.391663
 H         1.097587        -2.110988         0.853867
 H         1.787645        -0.621504         2.624747
 H         3.523761        -0.943849         2.308073
 H         3.204328         2.326164         0.445908
 H         2.691528         1.079895        -2.334978
 H         2.627563        -2.101844        -1.267659
 H         3.954404        -1.743578        -0.016546
