19
Iteration:   865charge 0 multiplicity 1
 C         0.111468         0.602564        -0.362860
 C         1.427233         0.066254         0.047471
 C         1.862617        -1.417409         0.575563
 C         2.473168        -0.676804         1.823927
 C         2.560794         0.557883         0.905642
 O         2.909807         1.877775         1.157737
 C         2.802952         0.045085        -0.557864
 O         3.354337         0.961777        -1.430209
 C         2.976260        -1.465489        -0.460963
 H        -0.737929         0.200842         0.261281
 H         0.010575         1.714548        -0.119233
 H        -0.141620         0.421887        -1.406240
 H         1.220666        -2.328230         0.563315
 H         1.707986        -0.583074         2.664367
 H         3.354070        -1.174683         2.388830
 H         3.510238         2.024927         0.363424
 H         2.998723         0.864012        -2.398329
 H         2.671004        -1.931969        -1.420126
 H         3.933103        -1.860429        -0.079540
