19
Iteration:  4775charge 0 multiplicity 1
 C         0.169927         0.882071        -0.228429
 C         1.368061         0.140425         0.255209
 C         1.859872        -1.098208         1.256166
 C         2.725020        -0.022726         1.893126
 C         2.704559         0.693521         0.620021
 O         3.362102         1.943020         0.390256
 C         2.637979        -0.260727        -0.599881
 O         2.965292         0.015700        -1.858867
 C         2.631468        -1.699684         0.031592
 H         0.177042         0.906495        -1.345042
 H        -0.719839         0.281133         0.015855
 H         0.112371         1.885912         0.199070
 H         1.074655        -1.597844         1.873423
 H         2.076195         0.456097         2.563536
 H         3.601578        -0.378595         2.407399
 H         3.273779         2.611185         1.083575
 H         3.552066         0.862321        -1.700779
 H         2.182995        -2.490152        -0.581607
 H         3.593402        -2.200580         0.311900
