19
Iteration:  2997charge 0 multiplicity 1
 C         0.187648         0.864636        -0.151715
 C         1.376758         0.064506         0.167587
 C         1.824172        -1.220941         0.919480
 C         2.633511        -0.297263         1.901555
 C         2.701311         0.654284         0.741898
 O         2.922102         1.928145         0.829940
 C         2.806331        -0.129104        -0.550439
 O         3.234098         0.402247        -1.771941
 C         2.792379        -1.621417        -0.300715
 H         0.440362         1.855942        -0.511652
 H        -0.209843         0.263250        -1.018880
 H        -0.640832         0.669651         0.522771
 H         1.150918        -2.126421         1.359690
 H         2.013914         0.162859         2.734981
 H         3.608108        -0.622992         2.300960
 H         3.852842         2.200525         0.464885
 H         2.668603        -0.067621        -2.290817
 H         2.222603        -2.058921        -1.075849
 H         3.851184        -2.027217        -0.057968
