19
Iteration:  3109
 C         0.025551         0.556509        -0.344432
 C         1.414463         0.155725         0.109476
 C         1.753683        -1.193654         0.980836
 C         2.702173        -0.380776         1.870047
 C         2.668835         0.650780         0.783420
 O         3.171225         1.905180         0.748636
 C         2.730633        -0.148755        -0.537533
 O         3.265550         0.648515        -1.569583
 C         2.699459        -1.570527        -0.218688
 H        -0.108675         0.404336        -1.431678
 H        -0.653448         0.059416         0.356319
 H        -0.000959         1.637785        -0.085961
 H         0.968548        -1.854384         1.260115
 H         2.437203        -0.069405         2.917430
 H         3.654145        -0.828960         2.142767
 H         3.529862         2.041674        -0.089920
 H         2.818416         0.396525        -2.492027
 H         2.115820        -1.977061        -1.035112
 H         3.643559        -2.181227        -0.028150
