19
Iteration:  3731
 C         0.014363         0.715628        -0.217620
 C         1.349282         0.085463         0.165376
 C         1.746054        -1.245771         0.885749
 C         2.643604        -0.315992         1.875630
 C         2.672504         0.639931         0.689301
 O         3.094468         1.962901         0.914706
 C         2.742877        -0.086871        -0.585911
 O         3.341058         0.508672        -1.667187
 C         2.777251        -1.626551        -0.318165
 H        -0.896106         0.232580         0.254571
 H         0.158187         1.774323         0.282260
 H        -0.063504         0.870355        -1.321982
 H         1.388317        -2.158340         1.298569
 H         1.866662         0.151835         2.481438
 H         3.583559        -0.739870         2.275763
 H         3.835894         2.144859         0.271857
 H         2.947855         0.052180        -2.355529
 H         2.432658        -2.431803        -1.060241
 H         3.753022        -2.114193         0.072995
