19
Iteration:  3091
 C         0.046275         0.605355        -0.314599
 C         1.294316         0.125755         0.268390
 C         1.757308        -1.204383         0.864124
 C         2.715186        -0.379134         1.897867
 C         2.707881         0.651506         0.718302
 O         3.215508         1.997848         0.706359
 C         2.720622        -0.122290        -0.531952
 O         3.280867         0.637904        -1.496029
 C         2.704370        -1.669042        -0.309058
 H         0.234972         0.418961        -1.376644
 H        -0.704855        -0.091462         0.053950
 H        -0.222221         1.633049        -0.054630
 H         1.126317        -1.854901         1.438646
 H         2.025655        -0.110710         2.695604
 H         3.667893        -0.828181         2.381373
 H         3.308903         2.073495        -0.199993
 H         2.844192         0.271021        -2.386867
 H         2.157661        -2.384005        -1.052491
 H         3.601878        -2.067832         0.114788
