19
Iteration:  4310charge 0 multiplicity 1
 C         0.098066         0.652643        -0.255144
 C         1.408606         0.088851         0.181842
 C         1.756692        -1.136341         1.047233
 C         2.719242        -0.215964         1.946183
 C         2.748919         0.734368         0.691822
 O         3.266547         1.966501         0.654912
 C         2.658449        -0.199970        -0.502647
 O         3.177318         0.441685        -1.722518
 C         2.595938        -1.644241        -0.161178
 H        -0.301967         1.510339         0.259786
 H        -0.050792         0.805793        -1.388600
 H        -0.620965        -0.072973         0.074638
 H         0.931411        -1.774986         1.317785
 H         2.081143         0.238904         2.715565
 H         3.746165        -0.614750         2.263767
 H         3.779964         1.984104        -0.199337
 H         3.582728        -0.238208        -2.379802
 H         1.792429        -2.079357        -0.853827
 H         3.457703        -2.323353        -0.015110
