19
Iteration:  3891charge 0 multiplicity 1
 C        -0.030889         0.689461        -0.217452
 C         1.335089         0.092047         0.102401
 C         1.778593        -1.185850         0.936844
 C         2.726530        -0.273609         1.854323
 C         2.720812         0.634094         0.636141
 O         3.132958         1.996234         0.910957
 C         2.654722        -0.151145        -0.597813
 O         3.447742         0.403065        -1.632298
 C         2.666437        -1.605324        -0.252970
 H        -0.263748         1.217901        -1.179851
 H        -0.830223        -0.035220         0.016990
 H        -0.256819         1.456872         0.627272
 H         1.208098        -1.953032         1.402615
 H         2.124375         0.177516         2.644641
 H         3.662944        -0.807296         2.104284
 H         3.361926         2.227007        -0.066598
 H         3.038697         0.580955        -2.550007
 H         2.097055        -2.323297        -0.981332
 H         3.687580        -2.015437         0.079266
