19
Iteration:  2340charge 0 multiplicity 1
 C         0.027814         0.601893        -0.237256
 C         1.395762         0.174882         0.130197
 C         1.786737        -1.130789         0.910439
 C         2.689647        -0.310540         1.880726
 C         2.678363         0.669165         0.749561
 O         3.158960         2.002248         0.799487
 C         2.635432        -0.195983        -0.613377
 O         3.288682         0.491885        -1.657959
 C         2.762442        -1.672543        -0.224730
 H        -0.077399         1.548659         0.242081
 H        -0.191016         0.686021        -1.259615
 H        -0.770143        -0.037813         0.135945
 H         1.205066        -1.974510         1.426190
 H         2.058180        -0.047285         2.752323
 H         3.690389        -0.613723         2.323874
 H         3.771991         2.153262         0.123089
 H         2.664786         0.480656        -2.417169
 H         2.422239        -2.537650        -0.860577
 H         3.679506        -1.879250         0.210078
