19
Iteration:  3729
 C         0.007751         0.724562        -0.209698
 C         1.351954         0.086299         0.160575
 C         1.763012        -1.240421         0.881141
 C         2.627808        -0.319620         1.881978
 C         2.671287         0.637956         0.688920
 O         3.093340         1.959773         0.912075
 C         2.704019        -0.107357        -0.590805
 O         3.348219         0.514850        -1.648671
 C         2.797808        -1.623102        -0.317374
 H        -0.876795         0.253829         0.262896
 H         0.184527         1.751206         0.226292
 H        -0.024470         0.828893        -1.252031
 H         1.327915        -2.087430         1.296618
 H         1.898479         0.172108         2.474438
 H         3.621691        -0.724923         2.194482
 H         3.879770         2.064175         0.229654
 H         2.976737        -0.000448        -2.457326
 H         2.437039        -2.429273        -1.087344
 H         3.751581        -2.005003         0.055381
