19
Iteration:  4784
 C         0.164168         0.848130        -0.192639
 C         1.371250         0.104062         0.209903
 C         1.800400        -1.043042         1.207519
 C         2.738338        -0.084345         1.966991
 C         2.769590         0.709628         0.628131
 O         3.329590         1.946087         0.383991
 C         2.718181        -0.278459        -0.528108
 O         2.940138        -0.006990        -1.914531
 C         2.640846        -1.658232         0.053784
 H         0.315228         1.255962        -1.172084
 H        -0.883683         0.365493        -0.180781
 H        -0.058541         1.742074         0.424173
 H         0.972775        -1.484505         1.748162
 H         2.185691         0.558346         2.581184
 H         3.593181        -0.427949         2.526749
 H         3.095881         2.706291         0.922595
 H         3.711891         0.697239        -2.007828
 H         1.960918        -2.242272        -0.686748
 H         3.684478        -2.083179         0.251478
