19
Iteration:  4312charge 0 multiplicity 1
 C         0.114546         0.656874        -0.257628
 C         1.408072         0.113655         0.191268
 C         1.765150        -1.152731         1.045876
 C         2.714403        -0.203062         1.948357
 C         2.745100         0.732507         0.689999
 O         3.269056         1.968432         0.646972
 C         2.645276        -0.187096        -0.493231
 O         3.171936         0.433718        -1.721514
 C         2.595339        -1.654419        -0.163933
 H        -0.301154         1.452627         0.307582
 H        -0.073136         0.810019        -1.392325
 H        -0.571475        -0.106956         0.066116
 H         0.927884        -1.825201         1.301908
 H         2.070997         0.147406         2.704337
 H         3.649638        -0.593730         2.305231
 H         3.832183         2.056178        -0.192105
 H         3.619953        -0.252961        -2.381102
 H         1.794438        -2.131534        -0.888392
 H         3.470556        -2.338895        -0.076399
