19
Iteration:  1094
 C         0.138371         0.706683        -0.426691
 C         1.406552         0.046140         0.180227
 C         1.822462        -1.397573         0.645567
 C         2.650986        -0.681000         1.846135
 C         2.637547         0.555097         0.878435
 O         2.806723         1.926946         1.111717
 C         2.779619         0.041674        -0.495017
 O         3.337010         0.868057        -1.468756
 C         2.895562        -1.480342        -0.529637
 H         0.041243         0.922417        -1.530317
 H        -0.578068        -0.173274        -0.408054
 H        -0.113983         1.549102         0.221342
 H         1.075121        -2.125097         0.808659
 H         1.907945        -0.522802         2.658813
 H         3.418891        -1.126109         2.375117
 H         3.574287         2.182136         0.676720
 H         3.238287         0.294159        -2.184916
 H         2.531758        -1.908259        -1.517517
 H         3.953153        -1.973852        -0.466233
