19
Iteration:  4209charge 0 multiplicity 1
 C         0.168194         0.825561        -0.170138
 C         1.471995         0.096714         0.130228
 C         1.666549        -1.163346         0.983110
 C         2.724888        -0.256200         1.865974
 C         2.718920         0.635231         0.730491
 O         3.031895         2.063447         0.677282
 C         2.732042        -0.251592        -0.624238
 O         3.177032         0.323707        -1.738125
 C         2.801291        -1.726845        -0.133424
 H         0.204412         1.165576        -1.244252
 H        -0.721496         0.191695        -0.268964
 H        -0.094247         1.703063         0.461770
 H         0.839665        -1.635449         1.500036
 H         2.226941         0.289543         2.750483
 H         3.606166        -0.749360         2.426202
 H         3.955634         2.116829         0.881132
 H         2.684960         0.666590        -2.404445
 H         2.083787        -2.373963        -0.640791
 H         3.790662        -2.177334         0.205711
