19
Iteration:  2452charge 0 multiplicity 1
 C         0.059943         0.715031        -0.205034
 C         1.429071         0.143525         0.121377
 C         1.831535        -1.203411         0.977102
 C         2.584035        -0.309849         1.893457
 C         2.785911         0.659916         0.768128
 O         3.144092         1.982451         0.806751
 C         2.656703        -0.133836        -0.596369
 O         3.163035         0.354258        -1.761259
 C         2.852807        -1.582015        -0.212486
 H        -0.665149         0.204999         0.387171
 H         0.105017         1.761606        -0.059221
 H        -0.192438         0.553421        -1.287345
 H         1.003336        -1.797194         1.359954
 H         1.799528         0.095895         2.492992
 H         3.495466        -0.547369         2.710586
 H         3.823446         2.150438         0.020143
 H         2.440421         0.267801        -2.418312
 H         2.441798        -2.220536        -0.974461
 H         3.765719        -2.018299         0.174403
