19
Iteration:  3716
 C         0.057134         0.775202        -0.176438
 C         1.336856         0.089719         0.091702
 C         1.839099        -1.246941         0.896726
 C         2.613661        -0.352882         1.850475
 C         2.606636         0.630848         0.766357
 O         3.112097         1.922001         0.833250
 C         2.610095        -0.175308        -0.662404
 O         3.343190         0.530427        -1.602099
 C         2.852919        -1.567387        -0.246639
 H        -0.766923         0.313999         0.334722
 H        -0.034317         1.797347         0.036692
 H        -0.273684         0.652331        -1.184184
 H         0.942715        -1.824162         1.156587
 H         2.138399        -0.109819         2.799509
 H         3.559977        -0.747626         2.316730
 H         3.850749         2.064790         0.289344
 H         3.343873         0.167973        -2.517749
 H         2.418185        -2.263275        -1.014146
 H         3.865854        -1.815763        -0.060881
