19
Iteration:  3180
 C         0.125464         0.775461        -0.224198
 C         1.436488         0.084284         0.169661
 C         1.806830        -1.225365         0.904509
 C         2.598443        -0.471419         1.935730
 C         2.631176         0.652449         0.753330
 O         3.007252         2.051779         0.917951
 C         2.848675        -0.173283        -0.655907
 O         3.227580         0.541242        -1.805446
 C         2.828612        -1.692419        -0.207230
 H        -0.741466         0.177430        -0.471068
 H        -0.087157         1.625927         0.426154
 H         0.239937         1.275222        -1.168596
 H         1.093466        -2.070411         1.246960
 H         2.108397        -0.180352         2.831275
 H         3.516372        -0.832176         2.449608
 H         3.540969         2.487572         0.257588
 H         2.439475         0.390283        -2.508947
 H         2.387451        -2.334355        -1.070194
 H         3.765412        -2.109577         0.186854
