19
Iteration:  2859
 C         0.049246         0.659935        -0.326413
 C         1.386205         0.144949         0.197031
 C         1.816184        -1.158815         0.971171
 C         2.670035        -0.292384         1.977382
 C         2.633031         0.658432         0.791186
 O         3.288293         1.919125         0.790713
 C         2.716115        -0.195185        -0.650896
 O         3.128616         0.499145        -1.710261
 C         2.771747        -1.586662        -0.208763
 H        -0.842497         0.350979         0.287904
 H        -0.136717         1.742157        -0.301033
 H        -0.166730         0.203823        -1.335148
 H         1.247369        -1.969327         1.355528
 H         2.152116         0.133996         2.805023
 H         3.684372        -0.549585         2.176540
 H         3.855933         2.016657        -0.049459
 H         2.467579         0.199911        -2.445542
 H         2.283749        -2.280697        -0.944783
 H         3.605469        -1.987641         0.248055
