19
Iteration:  1619charge 0 multiplicity 1
 C         0.147693         0.617866        -0.248400
 C         1.445787         0.041549         0.066870
 C         1.741767        -1.349750         0.786058
 C         2.554269        -0.497594         1.856270
 C         2.630305         0.597868         0.827619
 O         3.000375         1.966145         1.064459
 C         2.878344        -0.026684        -0.581213
 O         3.342526         0.718693        -1.640168
 C         2.788974        -1.528255        -0.377783
 H        -0.058222         1.694642        -0.183001
 H        -0.135543         0.356589        -1.338853
 H        -0.557330         0.198547         0.461103
 H         1.044148        -2.201937         1.060848
 H         1.880535        -0.270880         2.790088
 H         3.525000        -0.868293         2.298682
 H         2.864929         2.599896         0.251179
 H         2.852894         0.572125        -2.553963
 H         2.442958        -2.021894        -1.251758
 H         3.743230        -1.958137        -0.175181
