19
Iteration:  4521
 C         0.063905         0.612718        -0.229652
 C         1.452644         0.131610         0.146301
 C         1.732713        -1.028966         1.063896
 C         2.679394        -0.102991         1.923107
 C         2.771051         0.662576         0.620768
 O         3.393027         1.920543         0.585313
 C         2.726169        -0.227272        -0.584715
 O         3.070165         0.323250        -1.809816
 C         2.544399        -1.690953         0.016961
 H         0.011192         1.014577        -1.201229
 H        -0.620752        -0.177572         0.113770
 H        -0.004613         1.494700         0.388123
 H         0.961117        -1.659571         1.579981
 H         2.198585         0.365296         2.778027
 H         3.582008        -0.805670         2.293544
 H         2.920621         2.669372         0.280903
 H         3.988166         0.752463        -1.645617
 H         1.817793        -2.314553        -0.554095
 H         3.423243        -2.216089         0.149993
