19
Iteration:  2348
 C         0.015881         0.611647        -0.240132
 C         1.408146         0.143677         0.163652
 C         1.787689        -1.142961         0.864929
 C         2.730345        -0.315679         1.878804
 C         2.712371         0.667684         0.731439
 O         3.136954         1.989561         0.761043
 C         2.668789        -0.173142        -0.561238
 O         3.256298         0.508234        -1.608165
 C         2.752807        -1.682844        -0.186267
 H        -0.283184         1.639048         0.127823
 H        -0.072577         0.748144        -1.365933
 H        -0.725453        -0.099904         0.034632
 H         1.014483        -1.765567         1.399695
 H         1.967651         0.103159         2.705444
 H         3.771391        -0.796411         2.194256
 H         3.712611         2.160474         0.072077
 H         2.689306         0.406968        -2.477040
 H         2.348877        -2.273012        -1.037589
 H         3.704285        -2.072552         0.179858
