19
Iteration:  3714
 C         0.062273         0.783520        -0.180410
 C         1.344414         0.096464         0.076519
 C         1.836556        -1.249004         0.903858
 C         2.634509        -0.365409         1.859611
 C         2.583633         0.635763         0.774095
 O         3.113209         1.911132         0.812495
 C         2.620863        -0.161240        -0.676570
 O         3.339866         0.536383        -1.599533
 C         2.846350        -1.559655        -0.233392
 H        -0.714503         0.325952         0.396455
 H        -0.060778         1.789312         0.034577
 H        -0.374976         0.625750        -1.204535
 H         0.891875        -1.912835         1.146460
 H         2.084820        -0.193383         2.843589
 H         3.541651        -0.805151         2.321483
 H         3.865715         2.114138         0.269447
 H         3.356859         0.203801        -2.424856
 H         2.462026        -2.272259        -0.917734
 H         3.881882        -1.885523        -0.066389
