19
Iteration:   169charge 0 multiplicity 1
 C         0.104585         0.581071        -0.375772
 C         1.464744         0.050705        -0.052183
 C         1.793231        -1.420601         0.364476
 C         2.459365        -0.916765         1.641765
 C         2.572103         0.496227         0.867025
 O         2.601156         1.731002         1.462416
 C         2.964680         0.133417        -0.527251
 O         3.406436         1.243101        -1.207948
 C         3.120118        -1.381702        -0.655493
 H         0.211302         1.632782        -0.355728
 H        -0.463612         0.300545        -1.268847
 H        -0.624226         0.211569         0.418094
 H         1.146628        -2.407048         0.371466
 H         1.796207        -0.778599         2.520087
 H         3.395500        -1.381792         2.038224
 H         3.438787         2.141538         1.145608
 H         3.597503         1.146471        -2.081737
 H         2.917706        -1.895619        -1.597071
 H         4.033542        -1.735263        -0.295903
