19
Iteration:  3756charge 0 multiplicity 1
 C         0.104714         0.674692        -0.264721
 C         1.528963         0.150265         0.071544
 C         1.782664        -1.148878         0.940305
 C         2.637415        -0.411606         1.936622
 C         2.680997         0.630491         0.800907
 O         3.040757         2.011351         0.953761
 C         2.761893        -0.120851        -0.586800
 O         3.282994         0.481691        -1.749084
 C         2.715420        -1.632045        -0.273561
 H        -0.683481        -0.084928        -0.078523
 H        -0.061463         1.589774         0.358129
 H         0.182794         0.974909        -1.400739
 H         0.915574        -1.873376         1.231000
 H         2.053362        -0.044510         2.833271
 H         3.604132        -0.889834         2.056443
 H         3.319180         2.228514        -0.023966
 H         2.524898         0.333865        -2.418201
 H         2.115697        -2.160365        -0.997618
 H         3.638833        -2.349663        -0.228373
