19
Iteration:  1311
 C         0.112717         0.660148        -0.324180
 C         1.396509         0.061623         0.100815
 C         1.798365        -1.384963         0.649635
 C         2.516324        -0.607272         1.802069
 C         2.554481         0.610711         0.843411
 O         2.968845         1.920239         1.140055
 C         2.736675        -0.030675        -0.545315
 O         3.308833         0.807528        -1.586250
 C         2.999998        -1.486262        -0.377618
 H        -0.491908         0.926834         0.594980
 H         0.315773         1.563045        -1.001745
 H        -0.384955         0.030364        -1.007997
 H         1.243484        -2.244880         0.851825
 H         2.055724        -0.421360         2.808962
 H         3.525768        -0.954048         1.881873
 H         3.813134         2.004673         0.708438
 H         2.856306         0.808767        -2.412211
 H         2.637930        -2.213928        -1.158391
 H         3.925435        -1.702608         0.189704
