19
Iteration:  2675charge 0 multiplicity 1
 C         0.045973         0.732189        -0.259208
 C         1.377820         0.080378         0.301966
 C         1.834389        -1.257449         1.052035
 C         2.746890        -0.310950         1.844888
 C         2.724174         0.740809         0.719965
 O         3.114597         1.968243         0.554424
 C         2.616631        -0.182076        -0.535484
 O         3.314832         0.458074        -1.616845
 C         2.660118        -1.603177        -0.123470
 H         0.073163         0.696578        -1.365429
 H        -0.863072         0.207320         0.045907
 H         0.134124         1.785984        -0.106392
 H         1.151750        -2.042766         1.379486
 H         2.169928        -0.096411         2.712727
 H         3.811675        -0.757627         1.977457
 H         3.569689         2.027261        -0.256329
 H         2.766535         0.407177        -2.392138
 H         1.967168        -1.929865        -0.867814
 H         3.606689        -2.201162        -0.041474
