19
Iteration:  3734charge 0 multiplicity 1
 C         0.028422         0.714477        -0.222994
 C         1.340623         0.081735         0.164067
 C         1.740088        -1.252747         0.889703
 C         2.660069        -0.316255         1.857561
 C         2.675814         0.645246         0.703239
 O         3.095594         1.966168         0.915186
 C         2.795211        -0.072358        -0.580972
 O         3.334792         0.507528        -1.686019
 C         2.754502        -1.632305        -0.309149
 H        -0.859382         0.220423         0.202945
 H         0.062361         1.717532         0.289960
 H        -0.133946         0.911301        -1.365658
 H         1.366592        -2.255865         1.324977
 H         1.863528         0.107847         2.558400
 H         3.512955        -0.742959         2.410996
 H         3.757751         2.260660         0.333980
 H         2.840012         0.048797        -2.409902
 H         2.397643        -2.342479        -1.007429
 H         3.699195        -2.200330         0.068207
