19
Iteration:  2224
 C         0.058640         0.761399        -0.324663
 C         1.399222         0.132314         0.163985
 C         1.818418        -1.352471         1.003275
 C         2.765229        -0.380677         1.925936
 C         2.566935         0.681367         0.788158
 O         3.048871         2.002533         0.763233
 C         2.651590        -0.105526        -0.586792
 O         3.313288         0.533837        -1.610880
 C         2.805210        -1.662506        -0.279915
 H         0.286816         0.910800        -1.370897
 H        -0.795801         0.064424        -0.125195
 H        -0.299711         1.646168         0.160031
 H         0.996618        -2.005702         1.285458
 H         2.254232        -0.130060         2.940898
 H         3.850440        -0.782532         2.083112
 H         3.644112         2.094284        -0.036447
 H         2.747820         0.423020        -2.369427
 H         2.291639        -2.201773        -1.023727
 H         3.773268        -2.169704        -0.164570
