19
Iteration:    58
 C         0.114439         0.554417        -0.568638
 C         1.379445        -0.064723        -0.005697
 C         1.982647        -1.499655         0.352800
 C         2.401004        -0.876948         1.741895
 C         2.498970         0.441423         0.988508
 O         2.774426         1.672725         1.595090
 C         2.878934         0.230917        -0.434069
 O         3.347918         1.232446        -1.200124
 C         3.094593        -1.199151        -0.839618
 H        -0.423423        -0.204058        -1.018642
 H        -0.542008         0.972035         0.275969
 H         0.374375         1.328406        -1.344158
 H         1.469352        -2.342008         0.292789
 H         1.543660        -0.797028         2.273364
 H         3.245654        -1.282250         2.311039
 H         3.442230         2.278225         1.036397
 H         3.376586         0.951187        -2.200856
 H         2.555830        -1.421189        -1.764788
 H         4.120282        -1.677991        -0.870774
