19
Iteration:  4432charge 0 multiplicity 1
 C         0.171782         0.859323        -0.251388
 C         1.460846         0.136467         0.164428
 C         1.729198        -1.178981         1.084997
 C         2.782700        -0.236326         1.944308
 C         2.775507         0.669942         0.700035
 O         3.141596         2.060200         0.489126
 C         2.699476        -0.256601        -0.516223
 O         3.140979         0.208408        -1.795613
 C         2.597929        -1.724491        -0.098824
 H        -0.506886         0.079118        -0.470126
 H        -0.361421         1.573530         0.500870
 H         0.250014         1.452638        -1.151047
 H         0.922991        -1.676058         1.668439
 H         2.278182         0.034645         2.848556
 H         3.759305        -0.786778         2.366007
 H         2.897502         2.527640         1.277341
 H         3.339226         1.103082        -1.633727
 H         2.046838        -2.436395        -0.779259
 H         3.573386        -2.100992         0.015644
