19
Iteration:   513
 C         0.085190         0.623090        -0.524789
 C         1.492877         0.067062         0.007655
 C         1.964779        -1.442054         0.519428
 C         2.542224        -0.717058         1.872510
 C         2.508892         0.511063         0.991421
 O         2.718208         1.805966         1.369445
 C         2.888416         0.031331        -0.582548
 O         3.383772         1.077149        -1.374418
 C         2.941288        -1.415851        -0.661329
 H        -0.531058         1.260361         0.224584
 H         0.262241         1.159890        -1.528038
 H        -0.506069        -0.183179        -0.796149
 H         1.340940        -2.202386         0.666797
 H         1.855086        -0.505608         2.677343
 H         3.551912        -1.136775         2.285647
 H         3.663873         1.871312         1.664153
 H         2.856024         0.947726        -2.285272
 H         2.139940        -1.879690        -1.350570
 H         3.975479        -2.025866        -0.833270
