19
Iteration:   163charge 0 multiplicity 1
 C         0.104209         0.577094        -0.362457
 C         1.465756         0.045604        -0.031097
 C         1.837204        -1.432114         0.355528
 C         2.423657        -0.905948         1.655148
 C         2.572370         0.442265         0.891713
 O         2.608412         1.738977         1.425574
 C         2.971160         0.130845        -0.503776
 O         3.395543         1.271421        -1.206979
 C         3.116545        -1.351784        -0.657936
 H         0.150139         1.736025        -0.570566
 H        -0.285692         0.055362        -1.282457
 H        -0.552153         0.508005         0.500051
 H         1.137285        -2.317851         0.334577
 H         1.744164        -0.865569         2.537102
 H         3.269409        -1.499552         2.038116
 H         3.405905         2.074727         1.098319
 H         3.566245         0.935014        -2.170582
 H         2.736201        -1.694743        -1.664876
 H         4.191673        -1.839339        -0.363622
