19
Iteration:  4436
 C         0.167600         0.871374        -0.255113
 C         1.387062         0.150400         0.142776
 C         1.747288        -1.179757         1.080534
 C         2.805844        -0.279791         1.938896
 C         2.770997         0.678249         0.675699
 O         3.152756         2.047837         0.499694
 C         2.702385        -0.288794        -0.555000
 O         3.145674         0.215503        -1.766121
 C         2.610523        -1.710652        -0.053706
 H        -0.505264        -0.035365        -0.509831
 H        -0.407341         1.428878         0.430044
 H         0.295010         1.626177        -1.077641
 H         0.922557        -1.581681         1.690027
 H         2.281380         0.121262         2.836541
 H         3.708822        -0.655547         2.221613
 H         3.010288         2.599889         1.320552
 H         3.256389         1.234106        -1.653186
 H         2.013560        -2.392506        -0.687150
 H         3.678771        -2.153922         0.070323
