19
Iteration:  1688
 C         0.068236         0.660748        -0.400366
 C         1.405379         0.111801         0.106621
 C         1.772266        -1.323204         0.800016
 C         2.696422        -0.594931         1.929913
 C         2.584618         0.601252         0.837619
 O         3.002941         1.977065         0.927211
 C         2.805366        -0.089280        -0.535262
 O         3.272082         0.796057        -1.583839
 C         2.849670        -1.571071        -0.320009
 H        -0.533927         1.246223         0.348298
 H         0.285458         1.400687        -1.151040
 H        -0.697333        -0.217014        -0.657621
 H         1.014491        -2.031722         1.006473
 H         2.175533        -0.557729         2.908265
 H         3.723179        -0.860164         2.183431
 H         3.795735         2.019664         0.426889
 H         2.654909         0.540746        -2.206100
 H         2.547262        -2.160686        -1.224682
 H         3.776517        -1.969491        -0.052145
