19
Iteration:  1542
 C         0.111753         0.698620        -0.312334
 C         1.459530         0.135963         0.061852
 C         1.861368        -1.315304         0.736004
 C         2.578380        -0.581907         1.913992
 C         2.668412         0.568405         0.848218
 O         2.912645         1.950398         0.939622
 C         2.731989        -0.025376        -0.533200
 O         3.298100         0.830844        -1.484773
 C         2.855078        -1.679082        -0.436487
 H         0.074090         0.876441        -1.392559
 H        -0.642688        -0.155077        -0.077588
 H        -0.305710         1.438319         0.333416
 H         1.214815        -2.209027         1.024458
 H         1.866970        -0.170311         2.728838
 H         3.508996        -1.019266         2.159995
 H         3.750072         2.108824         0.553283
 H         3.104072         0.566781        -2.377739
 H         2.387117        -2.096113        -1.315009
 H         3.796845        -2.130510        -0.150798
