19
Iteration:  3819charge 0 multiplicity 1
 C         0.148415         0.691283        -0.392506
 C         1.338631         0.136988         0.149561
 C         1.778102        -1.269345         0.911869
 C         2.714259        -0.343657         1.954268
 C         2.653818         0.696654         0.800005
 O         3.203738         1.882795         0.818807
 C         2.609420        -0.147196        -0.534644
 O         3.127452         0.632126        -1.629159
 C         2.807284        -1.684914        -0.250247
 H        -0.026799         0.306210        -1.407102
 H        -0.783809         0.791462         0.257299
 H         0.438972         1.730950        -0.557227
 H         0.992073        -1.928825         1.368166
 H         2.045689         0.067441         2.720562
 H         3.773134        -0.549147         2.236865
 H         3.856410         1.953973         0.030574
 H         3.139594         0.075786        -2.489938
 H         2.229233        -2.330184        -0.949784
 H         3.759015        -1.998736         0.193621
