19
Iteration:   570
 C         0.077015         0.751286        -0.537972
 C         1.382514        -0.002405        -0.017640
 C         1.933673        -1.459653         0.559605
 C         2.572957        -0.711642         1.771326
 C         2.496353         0.488224         0.958200
 O         2.784522         1.752734         1.383987
 C         2.830093         0.087558        -0.525599
 O         3.389104         1.040940        -1.427882
 C         3.042783        -1.438856        -0.543551
 H        -0.818646         0.349007         0.019969
 H         0.104079         1.797076        -0.065040
 H        -0.215543         0.713660        -1.565775
 H         1.262935        -2.284343         1.031120
 H         1.868100        -0.767464         2.643429
 H         3.555663        -1.116677         2.140618
 H         3.145015         2.153063         0.617190
 H         2.822585         0.956251        -2.274233
 H         2.667622        -1.907459        -1.489694
 H         4.131204        -1.845985        -0.215269
