19
Iteration:  2254
 C         0.122429         0.784258        -0.264278
 C         1.353382         0.041024         0.146540
 C         1.791972        -1.274808         1.004053
 C         2.750777        -0.319070         1.900459
 C         2.678037         0.616989         0.692420
 O         2.973790         1.935104         0.743994
 C         2.718187        -0.155691        -0.546070
 O         3.279452         0.590563        -1.584215
 C         2.776919        -1.638227        -0.257225
 H         0.451373         1.408207        -1.112737
 H        -0.687210         0.051548        -0.653904
 H        -0.365137         1.401292         0.617346
 H         1.081473        -2.077958         1.437650
 H         2.253708         0.160561         2.692900
 H         3.719549        -0.677777         2.168705
 H         3.572269         2.169629        -0.074962
 H         3.029264         0.176602        -2.394852
 H         2.137797        -2.106243        -1.095847
 H         3.778334        -2.255589        -0.155096
