19
Iteration:  3023
 C         0.175863         0.766618        -0.221263
 C         1.438683         0.065231         0.099680
 C         1.813360        -1.194224         0.929675
 C         2.606144        -0.462579         1.946317
 C         2.703760         0.705100         0.765587
 O         3.020405         2.097738         0.901636
 C         2.754023        -0.196019        -0.668111
 O         3.203553         0.442742        -1.808607
 C         2.769887        -1.625723        -0.182767
 H         0.270019         1.516517        -1.024463
 H        -0.581614         0.094726        -0.556623
 H        -0.312194         1.157409         0.704989
 H         1.263137        -1.993598         1.272332
 H         1.872741        -0.182181         2.785512
 H         3.538959        -0.983855         2.322774
 H         3.860001         2.381806         0.291774
 H         2.654728         0.217626        -2.503813
 H         2.284612        -2.338597        -0.982417
 H         3.751543        -1.901534         0.259487
