19
Iteration:  2589
 C         0.098136         0.728090        -0.282196
 C         1.407838         0.175832         0.083898
 C         1.803896        -1.201526         1.045373
 C         2.690334        -0.272667         1.914923
 C         2.652649         0.707557         0.753893
 O         3.236151         1.965793         0.820590
 C         2.752057        -0.186413        -0.559852
 O         3.095370         0.362585        -1.834720
 C         2.813653        -1.607469        -0.108473
 H        -0.311250         0.473945        -1.309839
 H        -0.605220         0.285093         0.521793
 H        -0.149176         1.798224        -0.274737
 H         0.920747        -1.807177         1.421995
 H         2.001415         0.096207         2.785773
 H         3.597862        -0.887088         2.241181
 H         3.576262         2.099515        -0.160342
 H         2.244056         0.216399        -2.423756
 H         2.313165        -2.314295        -0.819101
 H         3.820941        -2.021781         0.161176
