19
Iteration:   269
 C         0.081999         0.596922        -0.566534
 C         1.364274        -0.028491        -0.051444
 C         1.970626        -1.439402         0.456837
 C         2.491665        -0.818304         1.702024
 C         2.571622         0.496566         0.887954
 O         2.790369         1.716934         1.457744
 C         2.820880         0.104041        -0.548739
 O         3.360334         1.231305        -1.162945
 C         3.054902        -1.359512        -0.596238
 H        -0.807238         0.102209        -0.128618
 H         0.090721         1.630526        -0.213704
 H        -0.116090         0.583923        -1.688213
 H         1.313884        -2.460456         0.515313
 H         1.660035        -0.618697         2.452446
 H         3.442268        -1.300021         2.057041
 H         3.529830         2.043845         0.913956
 H         3.027206         1.175102        -2.049268
 H         2.582523        -1.760802        -1.501320
 H         3.918522        -1.863300        -0.357373
