19
Iteration:  4504
 C         0.074487         0.648012        -0.168034
 C         1.484013         0.181581         0.144200
 C         1.665192        -1.042658         1.073448
 C         2.636109        -0.203765         1.977899
 C         2.759141         0.659002         0.719830
 O         3.445540         1.935942         0.455036
 C         2.725818        -0.228687        -0.542447
 O         3.068686         0.326180        -1.789477
 C         2.622514        -1.682669        -0.084219
 H        -0.139721         0.451320        -1.290580
 H        -0.669570        -0.033623         0.274063
 H        -0.311067         1.630431         0.227763
 H         0.794214        -1.564132         1.453841
 H         2.060538         0.432949         2.698150
 H         3.506719        -0.517822         2.432170
 H         2.728115         2.559083         0.367801
 H         3.909639         0.780731        -1.716371
 H         2.121140        -2.267241        -0.850603
 H         3.503038        -2.330979         0.377880
