19
Iteration:  4762
 C         0.141579         0.854247        -0.285392
 C         1.341719         0.175212         0.205332
 C         1.817642        -1.087843         1.191956
 C         2.773342        -0.029530         1.933118
 C         2.740836         0.717073         0.604167
 O         3.378224         1.922580         0.360865
 C         2.524355        -0.374119        -0.509351
 O         3.018822         0.101864        -1.812220
 C         2.660451        -1.723482         0.058639
 H         0.001601         0.733072        -1.324768
 H        -0.840556         0.571405         0.313149
 H         0.125329         1.945324        -0.129575
 H         1.369338        -1.850634         1.797519
 H         2.340098         0.482476         2.707252
 H         3.770445        -0.252674         2.237948
 H         3.241559         2.342637         1.267170
 H         3.355845         1.006985        -1.799864
 H         1.873468        -2.413546        -0.449205
 H         3.736897        -2.043647         0.283335
