19
Iteration:   187
 C         0.077623         0.620905        -0.347081
 C         1.405777        -0.005331        -0.137953
 C         1.924726        -1.449753         0.330731
 C         2.517691        -0.795147         1.667596
 C         2.466727         0.455790         0.896359
 O         2.618822         1.712897         1.540259
 C         2.797552         0.150441        -0.611093
 O         3.534891         1.216090        -1.244365
 C         3.084722        -1.395181        -0.594631
 H         0.021339         1.626887         0.111453
 H        -0.117198         0.687422        -1.433998
 H        -0.734217        -0.008421         0.036097
 H         1.296965        -2.174394         0.392214
 H         1.894285        -0.945506         2.512126
 H         3.499383        -1.238516         2.049244
 H         3.433261         2.080888         1.100410
 H         3.329139         1.082132        -2.115903
 H         2.872041        -1.830558        -1.572321
 H         4.065868        -1.798364        -0.143951
