19
Iteration:  3284
 C        -0.065731         0.647175        -0.201322
 C         1.390176         0.103341         0.156957
 C         1.868832        -1.266639         0.850607
 C         2.566886        -0.400512         1.900680
 C         2.602362         0.689369         0.788007
 O         3.153154         1.960321         0.894308
 C         2.760124        -0.133455        -0.673069
 O         3.442728         0.597016        -1.671955
 C         2.718646        -1.587973        -0.311394
 H        -0.463457         1.119834         0.755582
 H        -0.068616         1.373203        -1.046850
 H        -0.491289        -0.346917        -0.449993
 H         1.243010        -2.015745         1.202869
 H         1.764017         0.006498         2.584057
 H         3.423905        -0.758489         2.371324
 H         3.742980         2.080155         0.090922
 H         2.695827         0.731059        -2.184003
 H         2.183219        -2.293303        -0.882521
 H         3.678454        -2.110968        -0.034126
