19
Iteration:  4231charge 0 multiplicity 1
 C         0.171999         0.771469        -0.178185
 C         1.483313         0.150762         0.091954
 C         1.777918        -1.214056         1.033411
 C         2.642244        -0.253402         1.996125
 C         2.739041         0.684796         0.710308
 O         3.082887         1.971859         0.610141
 C         2.773593        -0.195038        -0.594873
 O         3.176255         0.355736        -1.767282
 C         2.655590        -1.669274        -0.117309
 H         0.391943         1.445801        -1.028043
 H        -0.390048         0.022536        -0.772537
 H        -0.495145         1.201216         0.603328
 H         1.162459        -2.036257         1.391864
 H         2.021427         0.197474         2.852147
 H         3.450480        -0.727571         2.695884
 H         4.048604         2.160323         0.401581
 H         2.378778         0.887425        -2.220877
 H         2.034186        -2.278453        -0.780367
 H         3.655492        -2.108995         0.152719
