19
Iteration:   605
 C         0.112286         0.572000        -0.353112
 C         1.433973         0.037218        -0.003389
 C         1.840438        -1.393758         0.498311
 C         2.449199        -0.681652         1.773250
 C         2.595466         0.496686         0.930289
 O         2.843700         1.830868         1.302054
 C         2.809956         0.061771        -0.578202
 O         3.409368         1.061203        -1.339143
 C         3.029690        -1.485375        -0.585827
 H        -0.584132        -0.243666        -0.365458
 H        -0.177796         1.317192         0.402656
 H         0.163317         1.201384        -1.288286
 H         0.994160        -2.275615         0.708318
 H         1.482880        -0.546392         2.355899
 H         3.257872        -1.137268         2.300925
 H         2.953016         2.191829         0.449411
 H         3.047931         1.081031        -2.324597
 H         2.837333        -2.037607        -1.503334
 H         4.054606        -1.783219        -0.203250
