19
Iteration:  1286
 C         0.059608         0.690469        -0.404101
 C         1.430185         0.036116        -0.003707
 C         1.814631        -1.300424         0.702601
 C         2.637431        -0.600540         1.924063
 C         2.683191         0.532048         0.823667
 O         2.874017         1.872066         1.161915
 C         2.848248        -0.043419        -0.527097
 O         3.292055         0.877711        -1.547405
 C         2.887381        -1.551947        -0.422387
 H        -0.348675         1.290354         0.420431
 H         0.139583         1.266478        -1.314498
 H        -0.663408        -0.109753        -0.660046
 H         1.098573        -2.161301         0.865001
 H         2.140983        -0.197220         2.729988
 H         3.547466        -1.012842         2.222988
 H         3.573137         2.257490         0.534168
 H         2.584082         0.909905        -2.331871
 H         2.395973        -2.056232        -1.310810
 H         3.873884        -2.012425         0.001128
