19
Iteration:  2337
 C         0.025151         0.605772        -0.229899
 C         1.369659         0.165148         0.110117
 C         1.801458        -1.170785         0.956072
 C         2.665031        -0.302854         1.869686
 C         2.671273         0.689561         0.757907
 O         3.162330         1.999894         0.818514
 C         2.654750        -0.197806        -0.648995
 O         3.300615         0.483907        -1.675737
 C         2.762269        -1.645378        -0.232444
 H        -0.080716         1.592525         0.300638
 H        -0.173977         0.686716        -1.331568
 H        -0.704906        -0.012735         0.244060
 H         1.140615        -1.958878         1.377401
 H         2.057351        -0.010763         2.879424
 H         3.697189        -0.645839         2.351985
 H         3.821271         2.088321         0.071152
 H         2.614509         0.517428        -2.496920
 H         2.407957        -2.538596        -0.767339
 H         3.748460        -1.866030         0.183853
