19
Iteration:  3561charge 0 multiplicity 1
 C         0.210902         0.726520        -0.360320
 C         1.407805         0.088095         0.111872
 C         1.796860        -1.252388         0.832909
 C         2.645441        -0.379685         1.941561
 C         2.717364         0.598322         0.796431
 O         3.031132         1.951934         0.886959
 C         2.696962        -0.163431        -0.555107
 O         3.174916         0.633166        -1.587124
 C         2.809575        -1.631177        -0.328447
 H         0.314665         1.802872        -0.370136
 H         0.032995         0.406575        -1.393902
 H        -0.728830         0.457972         0.207877
 H         0.963420        -1.928856         1.323530
 H         1.914117        -0.086568         2.711532
 H         3.602513        -0.873537         2.268862
 H         3.821670         2.319460         0.556557
 H         2.696881         0.420410        -2.343354
 H         2.225510        -2.396199        -0.976673
 H         3.766951        -2.002347         0.045861
