19
Iteration:  4568
 C         0.130870         0.822609        -0.327330
 C         1.354461         0.110226         0.205226
 C         1.769820        -1.098791         1.198836
 C         2.853411        -0.229845         1.854695
 C         2.685747         0.707544         0.708912
 O         3.270830         1.975051         0.581375
 C         2.637167        -0.179219        -0.515424
 O         3.052796         0.092598        -1.821793
 C         2.646524        -1.565394        -0.051020
 H         0.563967         1.861184        -0.535939
 H        -0.170613         0.249641        -1.114167
 H        -0.656147         1.041562         0.450049
 H         1.105140        -1.788156         1.684679
 H         2.405289         0.119650         2.856747
 H         3.780141        -0.796622         2.114723
 H         2.707808         2.352191        -0.159695
 H         3.816669         0.623773        -1.745025
 H         2.099190        -2.132926        -0.754786
 H         3.557630        -2.118580         0.242545
