19
Iteration:  3818charge 0 multiplicity 1
 C         0.150105         0.695287        -0.393839
 C         1.331467         0.132020         0.139226
 C         1.780790        -1.271896         0.919990
 C         2.721230        -0.339715         1.954230
 C         2.649236         0.687438         0.802354
 O         3.204080         1.885945         0.825205
 C         2.614647        -0.140613        -0.543823
 O         3.127428         0.630437        -1.625440
 C         2.807272        -1.686379        -0.246190
 H        -0.040026         0.296589        -1.402630
 H        -0.772395         0.825690         0.247080
 H         0.430024         1.706334        -0.569042
 H         0.988537        -1.907467         1.344292
 H         2.039217         0.049734         2.732869
 H         3.818530        -0.527624         2.239489
 H         3.842630         1.951504         0.023948
 H         3.115793         0.049675        -2.507509
 H         2.209689        -2.313479        -0.971273
 H         3.729051        -1.991499         0.180993
