19
Iteration:  4483charge 0 multiplicity 1
 C         0.010659         0.743698        -0.253522
 C         1.348634         0.193605         0.205558
 C         1.828612        -1.129447         1.082944
 C         2.678937        -0.197879         1.947151
 C         2.734569         0.743517         0.705355
 O         3.426894         1.899463         0.436944
 C         2.590836        -0.236754        -0.534552
 O         3.135715         0.232611        -1.751186
 C         2.674108        -1.633042        -0.100704
 H        -0.313638         0.426164        -1.277719
 H        -0.878927         0.464785         0.334390
 H        -0.040674         1.836362        -0.057547
 H         1.187560        -1.901488         1.464848
 H         1.987266         0.200420         2.739366
 H         3.484262        -0.727407         2.426291
 H         2.910066         2.607219         0.873793
 H         3.870781         0.953125        -1.519218
 H         2.060665        -2.312748        -0.682741
 H         3.670243        -2.163167         0.167658
