19
Iteration:  2134charge 0 multiplicity 1
 C         0.002174         0.641134        -0.271736
 C         1.337747         0.078510         0.118974
 C         1.779590        -1.229752         0.882787
 C         2.713984        -0.416963         1.886829
 C         2.638669         0.683475         0.779717
 O         3.138359         1.972676         0.858176
 C         2.667705        -0.107748        -0.531819
 O         3.283167         0.602762        -1.650564
 C         2.820793        -1.609801        -0.277647
 H        -0.495833        -0.191772        -0.677111
 H        -0.508795         1.411976         0.343140
 H         0.198516         1.240897        -1.125185
 H         0.924510        -1.839984         1.349574
 H         2.177940        -0.161721         2.800214
 H         3.724978        -0.967060         2.089740
 H         3.742012         2.244801         0.082283
 H         2.986195         0.186362        -2.462636
 H         2.544634        -2.410764        -0.900820
 H         3.759141        -1.866366         0.228825
