19
Iteration:   760
 C         0.082931         0.671614        -0.431263
 C         1.354844         0.026902         0.027742
 C         1.873409        -1.374602         0.529327
 C         2.548467        -0.686518         1.788112
 C         2.533901         0.531005         0.875390
 O         2.907783         1.858117         1.287652
 C         2.795600         0.029381        -0.555134
 O         3.292864         0.951852        -1.440999
 C         3.072153        -1.468865        -0.445283
 H         0.048417         1.663682        -0.073472
 H         0.028252         0.641955        -1.471502
 H        -0.864314         0.212340        -0.050362
 H         1.195504        -2.259750         0.658344
 H         1.860055        -0.679225         2.603903
 H         3.473296        -1.067101         2.159784
 H         3.589938         2.100007         0.675577
 H         2.690214         0.997113        -2.156265
 H         2.902436        -2.146352        -1.311701
 H         4.053110        -1.845853         0.061564
