19
Iteration:  2370charge 0 multiplicity 1
 C         0.104312         0.603816        -0.354479
 C         1.394063         0.083319         0.190202
 C         1.749062        -1.206468         1.070735
 C         2.728205        -0.389773         1.927684
 C         2.655673         0.664771         0.779027
 O         3.131767         1.993343         0.680949
 C         2.781107        -0.139346        -0.501962
 O         3.256611         0.605022        -1.662219
 C         2.644148        -1.600311        -0.251282
 H        -0.107224         1.492079         0.304198
 H         0.018015         1.035947        -1.395781
 H        -0.706649        -0.079477        -0.240111
 H         1.376178        -2.110038         1.543705
 H         2.217842         0.022315         2.909614
 H         3.804255        -0.763224         2.017187
 H         3.463031         2.144168        -0.288791
 H         2.858084         0.124629        -2.348437
 H         1.947719        -2.141647        -0.926685
 H         3.565363        -2.170056        -0.099667
