19
Iteration:   132charge 0 multiplicity 1
 C         0.110052         0.607555        -0.440539
 C         1.379934        -0.048317         0.020542
 C         1.979062        -1.516844         0.373520
 C         2.431115        -0.893702         1.745229
 C         2.425404         0.415505         0.969379
 O         2.695422         1.769004         1.475402
 C         2.831310         0.146263        -0.558648
 O         3.487270         1.212723        -1.197358
 C         3.092427        -1.241667        -0.770851
 H         0.348200         1.205529        -1.351326
 H        -0.619199        -0.106664        -0.785158
 H        -0.204101         1.331390         0.281471
 H         1.435372        -2.357865         0.356513
 H         1.553545        -0.928966         2.381565
 H         3.391324        -1.378119         2.159388
 H         3.569163         2.110963         1.031757
 H         3.089164         1.216761        -2.044655
 H         2.727350        -1.558885        -1.724438
 H         4.114092        -1.544040        -0.691558
