19
Iteration:   731charge 0 multiplicity 1
 C         0.131443         0.724751        -0.417058
 C         1.352273        -0.032591         0.000939
 C         1.911512        -1.447109         0.628815
 C         2.482796        -0.649112         1.839254
 C         2.539095         0.464759         0.856291
 O         2.843337         1.809921         1.290949
 C         2.817821         0.047132        -0.576603
 O         3.322515         1.022096        -1.458372
 C         3.081917        -1.457606        -0.506392
 H         0.494655         1.790123        -0.660566
 H        -0.268224         0.210063        -1.355157
 H        -0.576977         0.945255         0.403091
 H         1.462839        -2.350890         0.865230
 H         1.817694        -0.540697         2.703632
 H         3.375229        -1.054297         2.426667
 H         3.278036         2.213269         0.562166
 H         2.730856         0.942667        -2.324775
 H         2.569200        -2.014250        -1.292500
 H         3.983941        -1.936679        -0.441712
