19
Iteration:  2292charge 0 multiplicity 1
 C         0.062237         0.720201        -0.158932
 C         1.459554         0.103734         0.108991
 C         1.794305        -1.250354         0.901826
 C         2.571853        -0.355276         1.884636
 C         2.700454         0.645228         0.707765
 O         3.093548         2.058778         0.803498
 C         2.712235        -0.167720        -0.565963
 O         3.272664         0.430154        -1.684819
 C         2.843704        -1.630912        -0.210724
 H         0.067380         1.834421        -0.210651
 H        -0.429951         0.284744        -1.062839
 H        -0.635113         0.480656         0.639718
 H         1.026430        -1.917850         1.193852
 H         1.936661         0.181728         2.734325
 H         3.525186        -0.826665         2.387064
 H         3.398223         2.361175        -0.078112
 H         2.543575         0.505088        -2.424508
 H         2.456702        -2.228013        -1.017308
 H         3.853459        -1.966144         0.018965
