19
Iteration:  3381
 C         0.180383         0.757959        -0.449663
 C         1.344936         0.074399         0.230683
 C         1.789766        -1.343940         0.937715
 C         2.733057        -0.501385         1.939824
 C         2.587074         0.619833         0.880355
 O         3.041785         2.012246         0.865194
 C         2.844680        -0.108379        -0.513219
 O         3.223497         0.708646        -1.697285
 C         2.716236        -1.658160        -0.309858
 H         0.451457         1.818843        -0.451449
 H         0.103631         0.446688        -1.485249
 H        -0.716238         0.529841         0.052778
 H         1.231617        -2.183807         1.201583
 H         2.075699        -0.182803         2.834599
 H         3.732673        -0.845465         2.252569
 H         3.319212         2.011801        -0.019460
 H         2.613523         0.556481        -2.374136
 H         2.172211        -2.275563        -0.993435
 H         3.743741        -2.172801        -0.193557
