19
Iteration:   509
 C         0.088475         0.637602        -0.528657
 C         1.501017         0.064436         0.017858
 C         1.986057        -1.413012         0.546331
 C         2.519991        -0.699901         1.834112
 C         2.485028         0.514541         0.965264
 O         2.735570         1.796563         1.390742
 C         2.846487         0.018254        -0.591711
 O         3.389599         1.060213        -1.367805
 C         2.974324        -1.423959        -0.677858
 H        -0.399286         1.210892         0.204679
 H         0.206132         1.014278        -1.495384
 H        -0.701312        -0.261344        -0.709242
 H         1.222970        -2.265312         0.778989
 H         1.845835        -0.559936         2.734660
 H         3.490258        -1.088403         2.164386
 H         3.682673         1.970480         1.701556
 H         2.982974         1.101293        -2.170713
 H         2.207585        -1.929043        -1.375070
 H         3.968006        -1.950186        -0.872355
