19
Iteration:  1919charge 0 multiplicity 1
 C         0.104263         0.637084        -0.340322
 C         1.413104         0.095900         0.113629
 C         1.764817        -1.283222         0.846884
 C         2.645791        -0.476652         1.878472
 C         2.635215         0.649373         0.839572
 O         3.096928         1.962441         0.869161
 C         2.750851        -0.088914        -0.507212
 O         3.229993         0.678785        -1.574455
 C         2.821612        -1.562030        -0.336626
 H         0.107121         1.495536        -1.051204
 H        -0.516777        -0.119621        -0.765487
 H        -0.442944         1.052389         0.552631
 H         1.106787        -2.162420         1.119823
 H         2.046046        -0.056593         2.792639
 H         3.583001        -0.990805         2.288235
 H         3.412993         2.134166        -0.059338
 H         2.938910         0.310641        -2.362747
 H         2.484765        -2.279437        -1.153065
 H         3.749879        -1.979612         0.088747
