19
Iteration:  1075
 C         0.128838         0.618807        -0.376442
 C         1.476378         0.059802         0.045747
 C         1.847663        -1.299322         0.650892
 C         2.510941        -0.703094         1.856500
 C         2.561776         0.523368         0.931818
 O         2.862637         1.912259         1.146742
 C         2.892433         0.010800        -0.551175
 O         3.302385         0.928335        -1.538014
 C         2.888342        -1.520172        -0.417402
 H         0.228319         0.870684        -1.412772
 H        -0.684842        -0.077148        -0.277352
 H        -0.094883         1.613036         0.189837
 H         1.153444        -2.117437         0.803589
 H         2.043718        -0.486771         2.740124
 H         3.590202        -1.070404         1.989762
 H         3.556110         2.173775         0.604027
 H         2.897432         0.786688        -2.320950
 H         2.477742        -1.934792        -1.348041
 H         3.838132        -2.165454        -0.278793
