19
Iteration:   655charge 0 multiplicity 1
 C        -0.019140         0.576671        -0.349414
 C         1.301428         0.052770         0.043100
 C         1.943257        -1.418406         0.569178
 C         2.526323        -0.651020         1.779699
 C         2.503679         0.566181         0.833260
 O         2.821452         1.850802         1.302327
 C         2.761935         0.053965        -0.660458
 O         3.544973         0.917455        -1.286108
 C         3.002482        -1.412166        -0.611227
 H        -0.195121         0.227311        -1.404740
 H        -0.888325         0.217179         0.287554
 H         0.064818         1.638510        -0.285045
 H         1.293833        -2.165703         0.687111
 H         1.843629        -0.532026         2.613716
 H         3.557517        -1.078993         1.940761
 H         3.730874         2.105705         0.895187
 H         3.278126         1.083251        -2.181122
 H         2.513681        -1.953838        -1.435342
 H         4.022261        -1.728119        -0.512270
