19
Iteration:   619
 C         0.003218         0.564263        -0.321371
 C         1.485758         0.103889        -0.029626
 C         1.831843        -1.353541         0.513266
 C         2.427195        -0.804363         1.800404
 C         2.570531         0.504312         0.886322
 O         2.830524         1.838882         1.234213
 C         2.929931         0.041526        -0.532290
 O         3.421439         1.104887        -1.364057
 C         3.026724        -1.475736        -0.509549
 H        -0.590057        -0.265360        -0.734111
 H        -0.487429         0.977040         0.520734
 H        -0.086946         1.312316        -1.199129
 H         1.077524        -2.205966         0.457438
 H         1.839724        -0.620698         2.672681
 H         3.311582        -1.312761         2.174672
 H         3.344623         2.327621         0.477242
 H         3.114987         0.890883        -2.231522
 H         2.604558        -1.879583        -1.405533
 H         3.868211        -1.960174        -0.227344
