19
Iteration:   986
 C         0.045340         0.590265        -0.400522
 C         1.416459         0.104808         0.050518
 C         1.850731        -1.360099         0.651892
 C         2.556560        -0.645626         1.771554
 C         2.696386         0.547619         0.843325
 O         2.855646         1.884670         1.156836
 C         2.820060        -0.010428        -0.549812
 O         3.388842         0.984926        -1.399450
 C         2.850869        -1.553176        -0.478637
 H        -0.355579        -0.003991        -1.212685
 H        -0.676500         0.592241         0.464828
 H        -0.059325         1.647108        -0.742410
 H         1.264175        -2.144877         1.093212
 H         1.805882        -0.362877         2.530873
 H         3.501129        -1.096954         2.308225
 H         3.650710         2.124797         0.737395
 H         3.032798         0.808343        -2.221034
 H         2.580272        -2.085867        -1.452442
 H         3.834140        -2.145596        -0.177914
