19
Iteration:  1030charge 0 multiplicity 1
 C        -0.000585         0.646732        -0.415596
 C         1.358693         0.068002         0.040306
 C         1.932015        -1.370515         0.673634
 C         2.504251        -0.599307         1.844789
 C         2.507008         0.551258         0.883841
 O         3.008281         1.801098         1.196611
 C         2.760354         0.023168        -0.546255
 O         3.394515         0.844844        -1.555563
 C         3.009433        -1.411489        -0.427314
 H        -0.151610         0.687776        -1.494597
 H        -0.845883         0.044728         0.018345
 H        -0.125329         1.699943         0.004503
 H         1.294831        -2.224386         0.753331
 H         1.696354        -0.554303         2.558796
 H         3.380520        -1.111221         2.363462
 H         3.359051         2.252866         0.478505
 H         2.815776         1.345798        -2.039506
 H         2.554382        -2.147316        -1.172013
 H         4.055698        -1.905567        -0.263293
