19
Iteration:  3510
 C         0.048426         0.722389        -0.232113
 C         1.355990         0.068352         0.122124
 C         1.842028        -1.302475         0.827491
 C         2.694135        -0.349046         1.846926
 C         2.592542         0.612968         0.809921
 O         3.004898         1.940926         0.884609
 C         2.707900        -0.118561        -0.594980
 O         3.435152         0.573812        -1.517818
 C         2.773410        -1.612934        -0.398538
 H         0.223998         1.560148        -0.984430
 H        -0.688443        -0.088875        -0.567777
 H        -0.330350         1.311663         0.623363
 H         0.996821        -1.884494         1.205982
 H         2.007211         0.089218         2.585185
 H         3.560366        -0.848857         2.347150
 H         3.312297         2.244148        -0.032790
 H         3.182206         0.717691        -2.446996
 H         2.173506        -2.265907        -1.076253
 H         3.680940        -2.008428         0.005846
