19
Iteration:  4175charge 0 multiplicity 1
 C         0.088727         0.897703        -0.212400
 C         1.366827         0.114831         0.154382
 C         1.800215        -1.199872         1.043759
 C         2.770992        -0.320981         1.932814
 C         2.651968         0.714800         0.749728
 O         3.002501         1.998215         0.765963
 C         2.697569        -0.158558        -0.610750
 O         3.287516         0.248051        -1.796226
 C         2.744818        -1.599290        -0.192873
 H         0.091194         0.773475        -1.322256
 H        -0.736913         0.470375         0.271705
 H         0.149927         2.009241        -0.044441
 H         1.129232        -1.964342         1.496085
 H         2.113322         0.187423         2.720935
 H         3.785666        -0.752524         2.270120
 H         3.880321         2.107277         0.365719
 H         3.020192        -0.415395        -2.540614
 H         2.088647        -2.216256        -0.821135
 H         3.707193        -2.210771        -0.199610
