19
Iteration:   852charge 0 multiplicity 1
 C         0.118038         0.580499        -0.340821
 C         1.362710         0.014132         0.063431
 C         1.732655        -1.375151         0.599320
 C         2.550319        -0.708128         1.789525
 C         2.467455         0.554786         0.866762
 O         2.926976         1.826545         1.142685
 C         2.810513         0.055433        -0.528982
 O         3.429141         0.977067        -1.406402
 C         2.961657        -1.382601        -0.470408
 H        -0.683560         0.188811         0.383948
 H         0.204250         1.690705        -0.636767
 H        -0.093725         0.086726        -1.288201
 H         1.103120        -2.234914         0.808373
 H         1.960472        -0.427653         2.783770
 H         3.682207        -1.030077         1.744465
 H         3.491482         2.313005         0.518292
 H         3.102406         0.771759        -2.239162
 H         2.786330        -2.068855        -1.401675
 H         4.029916        -1.691555        -0.088542
