19
Iteration:  2728charge 0 multiplicity 1
 C         0.030755         0.674733        -0.047494
 C         1.424295         0.065022         0.124389
 C         1.679526        -1.142486         0.915887
 C         2.619361        -0.268133         1.850893
 C         2.721883         0.692150         0.625761
 O         3.159181         1.996136         0.714746
 C         2.802004        -0.202640        -0.583362
 O         3.291781         0.445836        -1.771804
 C         2.713787        -1.641134        -0.093052
 H        -0.511697         0.267107        -0.938674
 H        -0.522636         0.575254         0.931682
 H         0.186071         1.813005        -0.173782
 H         1.173019        -1.896597         1.533988
 H         1.918587         0.147662         2.604638
 H         3.461765        -0.808162         2.459148
 H         3.693467         2.249272        -0.013896
 H         2.669857         0.163731        -2.390181
 H         2.424351        -2.426106        -0.927642
 H         3.724456        -1.972470         0.390200
