19
Iteration:  4571
 C         0.143978         0.848534        -0.326096
 C         1.391915         0.108282         0.229888
 C         1.732388        -1.117456         1.191596
 C         2.881492        -0.203937         1.872331
 C         2.680162         0.692401         0.710296
 O         3.248377         1.981137         0.569913
 C         2.655659        -0.183735        -0.518927
 O         3.043057         0.103556        -1.844780
 C         2.642966        -1.585940        -0.029045
 H         0.555747         1.894421        -0.501323
 H        -0.190365         0.247921        -1.219558
 H        -0.647801         0.902534         0.475283
 H         1.062420        -1.816672         1.688275
 H         2.405861         0.100907         2.804185
 H         3.655648        -0.830741         2.126588
 H         2.753286         2.421745        -0.172059
 H         3.819748         0.670969        -1.706173
 H         2.112587        -2.138684        -0.847015
 H         3.590469        -2.204207         0.268677
