19
Iteration:  3533
 C         0.102161         0.758308        -0.313988
 C         1.338790         0.053608         0.108604
 C         1.776835        -1.318155         0.908117
 C         2.657239        -0.495996         1.860108
 C         2.581214         0.616309         0.812720
 O         3.015850         1.971232         0.810346
 C         2.803468        -0.094918        -0.511874
 O         3.384664         0.625100        -1.619355
 C         2.778793        -1.566053        -0.276180
 H         0.403012         1.784311        -0.705279
 H        -0.358125         0.025950        -1.030130
 H        -0.540536         0.995408         0.530207
 H         1.162970        -2.060655         1.309389
 H         2.303354        -0.257727         2.901807
 H         3.616461        -1.069633         2.011644
 H         3.435455         2.304788         0.021366
 H         2.588043         0.778640        -2.154889
 H         2.125298        -2.137460        -0.925244
 H         3.723379        -2.027093         0.028170
