19
Iteration:  1292charge 0 multiplicity 1
 C         0.064816         0.688290        -0.388392
 C         1.398395         0.037529        -0.021270
 C         1.817388        -1.262685         0.694102
 C         2.660018        -0.646954         1.862810
 C         2.648304         0.541312         0.837388
 O         2.888932         1.855307         1.144783
 C         2.836380        -0.041737        -0.513399
 O         3.276805         0.863060        -1.558901
 C         2.907266        -1.537001        -0.366083
 H        -0.296578         1.216350         0.492990
 H         0.145335         1.343391        -1.291180
 H        -0.607899        -0.144035        -0.768747
 H         1.013973        -1.977702         0.910853
 H         2.010831        -0.097056         2.694597
 H         3.678093        -1.098407         2.293069
 H         3.595239         2.179733         0.640541
 H         2.670105         0.869252        -2.221137
 H         2.659448        -1.941517        -1.318913
 H         3.813308        -1.873000         0.034455
