19
Iteration:  3711
 C         0.061378         0.785288        -0.196445
 C         1.363232         0.110744         0.052286
 C         1.817217        -1.256855         0.913043
 C         2.665282        -0.393343         1.891623
 C         2.551424         0.647290         0.779889
 O         3.108882         1.896020         0.781519
 C         2.643860        -0.136589        -0.688785
 O         3.336894         0.558920        -1.582497
 C         2.834726        -1.549381        -0.212624
 H        -0.661567         0.312623         0.557114
 H        -0.058861         1.908698         0.056021
 H        -0.492300         0.589485        -1.209159
 H         0.963390        -2.011012         1.128921
 H         1.988660        -0.288810         2.829066
 H         3.549120        -0.898530         2.269021
 H         3.924853         2.147248         0.179397
 H         3.355042         0.138679        -2.518326
 H         2.477012        -2.362484        -0.830615
 H         3.903552        -1.982281        -0.023706
