19
Iteration:  4290
 C        -0.020351         0.687053        -0.299361
 C         1.339609         0.193929         0.162744
 C         1.742903        -1.095835         1.097722
 C         2.803614        -0.264331         1.895794
 C         2.699573         0.669784         0.640421
 O         3.250899         1.912053         0.675898
 C         2.711874        -0.183771        -0.529326
 O         3.245467         0.470371        -1.721848
 C         2.640146        -1.701032        -0.065072
 H        -0.140430         1.710815         0.013913
 H        -0.161414         0.595026        -1.462863
 H        -0.889069         0.230309         0.151428
 H         1.102696        -1.760093         1.706381
 H         2.368199         0.031613         2.794482
 H         3.647397        -0.891222         2.003668
 H         3.510795         2.287732        -0.156883
 H         3.111711        -0.022034        -2.498741
 H         2.197329        -2.525654        -0.787430
 H         3.633989        -2.127240         0.225634
