19
Iteration:  4061
 C         0.044591         0.590432        -0.310099
 C         1.418952         0.180997         0.140951
 C         1.731205        -1.145079         0.998608
 C         2.662208        -0.286342         1.876310
 C         2.723702         0.691495         0.735067
 O         3.270513         1.932841         0.800492
 C         2.684408        -0.177310        -0.583261
 O         3.236335         0.496206        -1.667216
 C         2.653729        -1.627113        -0.143751
 H        -0.738838         0.192668         0.291514
 H         0.044542         1.688120        -0.296863
 H        -0.215111         0.377460        -1.313049
 H         1.020283        -1.920955         1.346482
 H         2.222458         0.057344         2.827691
 H         3.641581        -0.805157         2.029365
 H         3.631345         2.184628        -0.103884
 H         2.787644         0.307357        -2.611157
 H         2.151375        -2.329301        -0.814303
 H         3.652566        -2.024972         0.042142
