19
Iteration:  3261charge 0 multiplicity 1
 C         0.011681         0.659249        -0.189001
 C         1.399693         0.022983         0.078000
 C         1.711868        -1.205597         0.864052
 C         2.659525        -0.403415         1.862920
 C         2.671373         0.634904         0.810732
 O         3.027767         1.921188         0.780498
 C         2.704659        -0.110702        -0.550524
 O         3.426095         0.602699        -1.583980
 C         2.799930        -1.564630        -0.300768
 H        -0.405113         0.788290         0.856790
 H         0.286774         1.703769        -0.465990
 H        -0.569119         0.118622        -0.946269
 H         0.976782        -1.864975         1.288216
 H         2.190746         0.122310         2.725943
 H         3.600657        -0.795532         2.063471
 H         3.737571         2.048195         0.101033
 H         2.691301         0.587824        -2.342280
 H         2.269858        -2.065412        -1.058554
 H         3.783578        -2.106189        -0.178915
