19
Iteration:  4900
 C         0.077226         0.802128        -0.205624
 C         1.419201         0.204852         0.215997
 C         1.808675        -0.949557         1.183285
 C         2.811731         0.012855         1.938601
 C         2.839563         0.696643         0.669546
 O         3.311278         1.911676         0.296394
 C         2.696877        -0.284202        -0.544204
 O         2.878286         0.126749        -1.834542
 C         2.562982        -1.758720         0.170675
 H        -0.673429         0.488002         0.610336
 H         0.192139         1.894806        -0.231940
 H        -0.229420         0.450305        -1.236629
 H         1.142188        -1.552962         1.770886
 H         2.247252         0.507879         2.829967
 H         3.696490        -0.564385         2.280737
 H         4.113830         1.911192        -0.241990
 H         3.644270        -0.514930        -2.207672
 H         2.045261        -2.352093        -0.550729
 H         3.511075        -2.261471         0.519291
