19
Iteration:  3225
 C         0.147422         0.848950        -0.234068
 C         1.319817         0.015156         0.164812
 C         1.838980        -1.342303         0.947611
 C         2.699862        -0.385316         1.884368
 C         2.590344         0.578714         0.798394
 O         2.964751         1.984981         0.782426
 C         2.741033        -0.109584        -0.587949
 O         3.361208         0.651943        -1.649108
 C         2.801355        -1.658727        -0.291767
 H        -0.759813         0.467510         0.173073
 H         0.243559         1.884452         0.082095
 H        -0.168759         0.910384        -1.224053
 H         1.064597        -2.115008         1.375804
 H         2.204795        -0.129257         2.766138
 H         3.575510        -0.897029         2.252948
 H         3.264971         2.007202        -0.133757
 H         3.051939         0.103976        -2.507892
 H         2.177585        -2.358133        -0.938759
 H         3.793010        -2.107859        -0.061945
