19
Iteration:   120charge 0 multiplicity 1
 C         0.069273         0.648177        -0.501622
 C         1.358960        -0.033850        -0.039159
 C         1.960943        -1.485344         0.369858
 C         2.500055        -0.857311         1.650325
 C         2.505587         0.477799         0.946130
 O         2.680515         1.687422         1.527820
 C         2.800917         0.182371        -0.489549
 O         3.470689         1.190804        -1.173533
 C         3.129656        -1.340503        -0.720378
 H         0.127204         1.011630        -1.588595
 H        -0.732724        -0.095049        -0.448335
 H        -0.347869         1.417440         0.126821
 H         1.369094        -2.396381         0.399742
 H         1.852317        -0.853873         2.568563
 H         3.493087        -1.242985         2.053190
 H         3.408148         2.131119         0.970905
 H         2.986271         1.619940        -1.999539
 H         2.687437        -1.651842        -1.664999
 H         4.155081        -1.767267        -0.548440
