19
Iteration:  4543
 C        -0.004476         0.783200        -0.331798
 C         1.356949         0.201005         0.228527
 C         1.791065        -1.131298         1.132392
 C         2.845832        -0.090518         1.894868
 C         2.695908         0.742067         0.680591
 O         3.379616         1.962752         0.643335
 C         2.598833        -0.300046        -0.568070
 O         3.093356         0.191912        -1.805506
 C         2.645220        -1.732903        -0.100932
 H         0.196139         1.462776        -1.113889
 H        -0.540765        -0.155730        -0.558926
 H        -0.465700         1.413727         0.412973
 H         1.023504        -1.786061         1.622983
 H         2.282649         0.265564         2.762598
 H         3.809755        -0.617068         2.345920
 H         2.817855         2.620003         0.112395
 H         3.897729         0.573205        -1.545175
 H         2.063155        -2.387861        -0.789743
 H         3.525707        -2.218597         0.196142
