19
Iteration:  1040
 C        -0.002971         0.646204        -0.391445
 C         1.313063         0.026333         0.050553
 C         1.940979        -1.348327         0.657071
 C         2.484855        -0.583016         1.848234
 C         2.626392         0.578540         0.801869
 O         2.974957         1.820764         1.256419
 C         2.761077        -0.013084        -0.617762
 O         3.382760         0.838985        -1.500788
 C         3.016682        -1.491186        -0.441240
 H         0.046430         0.766352        -1.506878
 H        -0.987859         0.094142        -0.124884
 H        -0.132875         1.704922         0.005521
 H         1.247935        -2.150948         0.731346
 H         1.753216        -0.212239         2.579258
 H         3.444917        -0.914014         2.294528
 H         3.327917         2.154373         0.476986
 H         2.623077         1.242618        -1.813009
 H         2.464500        -1.905146        -1.384233
 H         4.140986        -1.810036        -0.128680
