19
Iteration:   591charge 0 multiplicity 1
 C         0.167501         0.655978        -0.383610
 C         1.366456        -0.068441        -0.003978
 C         1.927931        -1.464099         0.503787
 C         2.433201        -0.683914         1.821778
 C         2.517824         0.552051         0.819961
 O         2.858445         1.775627         1.333737
 C         2.813133         0.047050        -0.591686
 O         3.411345         1.030605        -1.353300
 C         3.001450        -1.384764        -0.549653
 H        -0.779175         0.044662        -0.288638
 H        -0.121702         1.550518         0.285602
 H         0.163807         0.848560        -1.410749
 H         1.338387        -2.378951         0.568642
 H         1.683963        -0.490610         2.646646
 H         3.435522        -0.967581         2.333280
 H         2.990113         2.583737         0.703129
 H         2.924056         1.110618        -2.103947
 H         2.588964        -1.837059        -1.521395
 H         4.058311        -1.893367        -0.187234
