19
Iteration:  4466charge 0 multiplicity 1
 C         0.066973         0.809773        -0.258096
 C         1.240070         0.070446         0.181393
 C         1.741620        -1.158395         1.119937
 C         2.794360        -0.137515         1.922981
 C         2.640548         0.667022         0.681204
 O         3.340193         1.867777         0.492033
 C         2.657093        -0.196444        -0.563263
 O         3.186771         0.226090        -1.765674
 C         2.671273        -1.616213        -0.069849
 H        -0.256786         0.368685        -1.199373
 H        -0.807326         0.735746         0.480172
 H         0.351099         1.826605        -0.486024
 H         1.011944        -1.684139         1.788065
 H         2.367182         0.308116         2.811985
 H         3.929490        -0.507899         2.028698
 H         3.216730         2.493391         1.210557
 H         3.499169         1.214697        -1.669835
 H         2.163648        -2.316434        -0.795436
 H         3.676712        -1.912536         0.107737
