19
Iteration:  4939charge 0 multiplicity 1
 C         0.127467         0.783848        -0.204587
 C         1.386568         0.202936         0.279163
 C         1.831930        -1.033460         1.233572
 C         2.852411        -0.000615         1.871532
 C         2.807702         0.768485         0.555266
 O         3.321411         1.991801         0.412534
 C         2.570051        -0.289604        -0.490880
 O         2.990845        -0.024150        -1.874229
 C         2.558843        -1.640045         0.125871
 H        -0.657023         0.167777        -0.622976
 H        -0.308032         1.517147         0.489758
 H         0.502600         1.342734        -1.069905
 H         1.114437        -1.541250         1.948372
 H         2.331810         0.549068         2.608363
 H         3.808504        -0.377853         2.334798
 H         3.915915         1.877230        -0.337662
 H         2.508223        -0.666916        -2.378812
 H         1.974028        -2.441474        -0.348378
 H         3.520233        -2.101572         0.400313
