19
Iteration:  3483
 C        -0.010590         0.649957        -0.141644
 C         1.393373         0.055617         0.016680
 C         1.754436        -1.267209         0.834384
 C         2.553936        -0.438529         1.843632
 C         2.664066         0.616362         0.795938
 O         3.025092         1.977578         0.872491
 C         2.810408        -0.072994        -0.588132
 O         3.413535         0.634277        -1.647510
 C         2.787713        -1.558276        -0.273580
 H        -0.053920         1.279260        -1.014045
 H        -0.774213        -0.109884        -0.129013
 H        -0.142105         1.376515         0.707071
 H         0.966929        -1.984115         1.169986
 H         2.053748        -0.087989         2.750181
 H         3.365674        -0.990835         2.285388
 H         3.936000         2.103240         0.469356
 H         3.603950         0.319372        -2.545889
 H         2.229752        -2.033418        -1.111295
 H         3.683243        -2.161232         0.060091
