19
Iteration:  2062charge 0 multiplicity 1
 C         0.106728         0.778475        -0.241818
 C         1.468484         0.094294         0.102053
 C         1.825033        -1.276830         0.932353
 C         2.660516        -0.473981         1.878207
 C         2.644861         0.637633         0.805479
 O         2.993301         1.959375         0.833830
 C         2.721134        -0.139646        -0.613418
 O         3.255552         0.576675        -1.646266
 C         2.837118        -1.564525        -0.218818
 H        -0.684782         0.143730         0.289183
 H         0.112907         1.854884        -0.190889
 H        -0.300550         0.634761        -1.305382
 H         1.004447        -1.915354         1.248773
 H         1.947901        -0.233227         2.739127
 H         3.521010        -0.821416         2.305819
 H         3.522571         2.120991        -0.082558
 H         2.742021         0.475565        -2.436288
 H         2.494244        -2.129687        -1.192844
 H         3.821329        -2.056031        -0.007135
