19
Iteration:   598
 C         0.154847         0.621078        -0.360206
 C         1.431008        -0.047729         0.030694
 C         1.871920        -1.425989         0.467164
 C         2.432079        -0.643869         1.804607
 C         2.558265         0.490535         0.852916
 O         2.857590         1.820098         1.322792
 C         2.783035         0.074281        -0.587009
 O         3.409711         1.037645        -1.338443
 C         3.019281        -1.442524        -0.577173
 H        -0.621293        -0.168897        -0.361797
 H        -0.123244         1.383417         0.344159
 H         0.069276         1.034823        -1.421169
 H         1.206272        -2.229956         0.697718
 H         1.612317        -0.627428         2.488286
 H         3.261015        -1.107119         2.372453
 H         2.944683         2.419270         0.561002
 H         3.011963         1.136974        -2.206661
 H         2.766857        -1.986661        -1.486370
 H         3.920559        -1.766962        -0.195967
