19
Iteration:  4913
 C         0.069195         0.801810        -0.212439
 C         1.438932         0.164129         0.185659
 C         1.809970        -1.001193         1.276628
 C         2.844327         0.000279         2.004311
 C         2.799198         0.732791         0.583548
 O         3.347357         1.985295         0.353809
 C         2.623976        -0.366320        -0.504629
 O         2.900733         0.093934        -1.851310
 C         2.616683        -1.719943         0.056945
 H        -0.872682         0.413199         0.181092
 H         0.071834         1.920972         0.093996
 H        -0.044905         0.756916        -1.335073
 H         0.947285        -1.377352         1.761718
 H         2.242291         0.745379         2.675099
 H         3.840242        -0.225698         2.570421
 H         4.149667         1.745523        -0.155765
 H         3.252509        -0.579008        -2.354035
 H         1.845183        -2.431193        -0.322004
 H         3.495722        -2.270179         0.237430
