19
Iteration:   313charge 0 multiplicity 1
 C         0.073428         0.553867        -0.539896
 C         1.423920         0.058933        -0.048313
 C         1.850480        -1.402667         0.424444
 C         2.500046        -0.902179         1.713431
 C         2.549597         0.522159         0.946190
 O         2.824303         1.729727         1.480387
 C         2.890000         0.154070        -0.475149
 O         3.355348         1.157882        -1.288216
 C         3.057953        -1.348466        -0.558874
 H        -0.488194        -0.295985        -0.975068
 H        -0.635864         1.085785         0.103670
 H         0.351509         1.286812        -1.389042
 H         1.118964        -2.367935         0.593778
 H         1.696324        -0.868398         2.536764
 H         3.533248        -1.301421         1.967598
 H         3.034777         2.288507         0.634720
 H         2.940633         1.040059        -2.100331
 H         2.722988        -1.678530        -1.570686
 H         4.033414        -1.693893        -0.292849
