19
Iteration:   904
 C         0.229976         0.657457        -0.323895
 C         1.452547        -0.010448         0.008206
 C         1.869074        -1.424591         0.582486
 C         2.489520        -0.571808         1.797105
 C         2.504065         0.515562         0.818696
 O         2.845405         1.809781         1.256630
 C         2.802935         0.040947        -0.585505
 O         3.358283         0.942591        -1.517507
 C         2.970784        -1.490386        -0.417305
 H        -0.629866        -0.011491        -0.072012
 H         0.024662         1.486181         0.344140
 H         0.134721         0.951049        -1.384804
 H         1.156076        -2.203659         0.854591
 H         1.750386        -0.333557         2.580611
 H         3.397520        -0.749963         2.288076
 H         3.218489         2.280407         0.566637
 H         2.703907         1.082917        -2.154676
 H         2.529229        -1.956112        -1.333857
 H         3.957174        -1.869499         0.030871
