19
Iteration:  4472charge 0 multiplicity 1
 C         0.016431         0.803714        -0.252006
 C         1.300107         0.083327         0.213554
 C         1.776594        -1.129426         1.124201
 C         2.758907        -0.201306         1.938202
 C         2.615778         0.632729         0.691097
 O         3.397428         1.901284         0.468460
 C         2.611331        -0.178809        -0.588922
 O         3.167857         0.209820        -1.754295
 C         2.691878        -1.602856        -0.092811
 H        -0.169492         0.447486        -1.304493
 H        -0.768330         0.556252         0.452869
 H         0.219230         1.877446        -0.474625
 H         1.053201        -1.765353         1.606562
 H         2.278321         0.433635         2.728562
 H         3.786017        -0.327059         2.224301
 H         3.158737         2.638581         1.113058
 H         3.627050         1.085115        -1.490330
 H         2.163460        -2.188857        -0.830366
 H         3.682865        -2.131623         0.218065
