19
Iteration:  4957charge 0 multiplicity 1
 C         0.099569         0.881428        -0.229303
 C         1.406950         0.189600         0.227208
 C         1.747641        -0.897346         1.295433
 C         2.906424        -0.025733         1.937684
 C         2.768536         0.694622         0.582514
 O         3.290701         2.031776         0.373313
 C         2.674282        -0.342503        -0.495676
 O         3.001757        -0.069707        -1.853778
 C         2.636876        -1.723119         0.117187
 H        -0.446076         0.203007        -0.919059
 H        -0.735017         0.933608         0.577276
 H         0.025598         1.883915        -0.749329
 H         1.116949        -1.536077         1.888775
 H         2.638429         0.545277         2.910134
 H         3.816508        -0.737475         2.016300
 H         3.592873         2.048243        -0.551675
 H         2.239540        -0.101719        -2.420993
 H         1.988017        -2.381736        -0.550015
 H         3.533283        -2.269631         0.344562
