19
Iteration:  4469charge 0 multiplicity 1
 C         0.036195         0.809250        -0.245058
 C         1.264866         0.072892         0.198571
 C         1.758277        -1.145319         1.122231
 C         2.784640        -0.173900         1.935498
 C         2.622860         0.641408         0.686673
 O         3.371796         1.887900         0.481818
 C         2.636719        -0.182505        -0.584381
 O         3.179385         0.221768        -1.757209
 C         2.678274        -1.605724        -0.083212
 H        -0.195545         0.396925        -1.317765
 H        -0.740685         0.627732         0.446740
 H         0.298608         1.869492        -0.514637
 H         1.011481        -1.714908         1.713452
 H         2.321066         0.398064         2.773722
 H         3.795045        -0.368620         2.101543
 H         3.205832         2.566224         1.140019
 H         3.519529         1.048980        -1.587256
 H         2.167836        -2.233783        -0.820495
 H         3.743027        -2.045707         0.178168
