19
Iteration:  3748
 C         0.056957         0.739292        -0.239252
 C         1.419259         0.076955         0.095895
 C         1.826211        -1.252388         0.912594
 C         2.613659        -0.396881         1.889477
 C         2.702550         0.667377         0.761875
 O         3.058670         1.997854         0.951146
 C         2.838448        -0.148293        -0.551501
 O         3.297043         0.503927        -1.771197
 C         2.713267        -1.609827        -0.223741
 H        -0.632805        -0.046007        -0.004930
 H        -0.186153         1.624870         0.255513
 H        -0.032344         0.867404        -1.325328
 H         0.920444        -1.753483         1.274125
 H         1.965479         0.012478         2.679651
 H         3.651971        -0.758804         2.172010
 H         3.539761         2.215913         0.079284
 H         2.730045         0.293225        -2.515758
 H         2.060458        -1.873079        -1.041763
 H         3.582416        -2.212392        -0.099716
