19
Iteration:   557
 C         0.147172         0.713218        -0.503817
 C         1.405651         0.063697         0.019891
 C         1.871215        -1.404810         0.509762
 C         2.619443        -0.811143         1.801228
 C         2.532283         0.499417         0.929308
 O         2.721918         1.835672         1.388532
 C         2.799503         0.052202        -0.551089
 O         3.334684         1.012036        -1.399482
 C         3.013695        -1.449012        -0.531785
 H        -0.719281         0.379353         0.148129
 H         0.239927         1.841430        -0.617110
 H        -0.039997         0.392650        -1.486449
 H         1.254614        -2.230128         0.470825
 H         2.018701        -0.804960         2.711680
 H         3.705472        -1.165372         2.000880
 H         3.465694         2.300910         0.875753
 H         2.910278         0.944655        -2.296152
 H         2.865601        -1.979895        -1.538775
 H         4.041179        -1.882177        -0.058201
