19
Iteration:  4308charge 0 multiplicity 1
 C         0.081256         0.647278        -0.257118
 C         1.405147         0.074161         0.173271
 C         1.751436        -1.119528         1.048457
 C         2.724562        -0.228635         1.940433
 C         2.748732         0.726014         0.699606
 O         3.266195         1.967337         0.659702
 C         2.678520        -0.209926        -0.520293
 O         3.182760         0.445828        -1.724297
 C         2.594124        -1.638148        -0.160127
 H        -0.285294         1.600951         0.226811
 H        -0.014714         0.794401        -1.334751
 H        -0.697567        -0.072624         0.073714
 H         0.930664        -1.739432         1.368750
 H         2.106777         0.322591         2.739989
 H         3.790335        -0.625301         2.229665
 H         3.722283         1.928719        -0.188390
 H         3.511818        -0.185343        -2.319610
 H         1.832854        -2.031289        -0.804248
 H         3.445298        -2.300985         0.039697
