19
Iteration:   177charge 0 multiplicity 1
 C         0.094713         0.599219        -0.366655
 C         1.436296        -0.001314        -0.121678
 C         1.836465        -1.430052         0.349485
 C         2.513416        -0.863657         1.654395
 C         2.519537         0.466638         0.914892
 O         2.617625         1.730440         1.501823
 C         2.871528         0.143352        -0.598960
 O         3.461072         1.234616        -1.214984
 C         3.091019        -1.413154        -0.618985
 H         0.061115         1.641726        -0.086839
 H        -0.282686         0.520315        -1.399711
 H        -0.563212         0.082027         0.337482
 H         1.211195        -2.178495         0.338579
 H         1.786670        -0.720212         2.408557
 H         3.539138        -1.287775         1.947791
 H         3.427264         2.319520         1.267030
 H         3.528809         1.155753        -2.129165
 H         3.015891        -1.867490        -1.591224
 H         3.976976        -1.794799        -0.115466
