19
Iteration:  2155
 C         0.013276         0.613972        -0.292368
 C         1.362526         0.070516         0.130878
 C         1.855203        -1.259951         0.892136
 C         2.573928        -0.351636         1.871466
 C         2.650491         0.652456         0.755665
 O         3.200738         1.916348         0.911271
 C         2.734630        -0.098972        -0.554133
 O         3.222658         0.539656        -1.691127
 C         2.833716        -1.482197        -0.214008
 H        -0.432318        -0.093371        -0.955280
 H        -0.494007         0.891439         0.644397
 H         0.023156         1.641801        -0.692113
 H         1.099206        -2.020296         1.293013
 H         1.930278         0.141128         2.543633
 H         3.538112        -0.606111         2.338104
 H         3.590453         2.128923        -0.022026
 H         3.072553         0.247897        -2.568752
 H         2.227094        -1.896161        -1.050395
 H         3.717075        -2.148220        -0.031658
