19
Iteration:  1523charge 0 multiplicity 1
 C         0.129284         0.614099        -0.336867
 C         1.449404         0.066356         0.144685
 C         1.745517        -1.300397         0.761553
 C         2.664520        -0.633850         1.837816
 C         2.634243         0.554758         0.848004
 O         2.890959         2.005890         0.974895
 C         2.857906        -0.073976        -0.546340
 O         3.342737         0.866078        -1.552979
 C         2.804295        -1.558948        -0.372064
 H         0.078509         0.746002        -1.432324
 H        -0.783155         0.045732        -0.063806
 H        -0.028748         1.656340         0.172104
 H         0.867473        -1.955112         0.983952
 H         2.012594        -0.514560         2.709689
 H         3.570564        -1.188825         2.075622
 H         3.652597         2.234132         0.406129
 H         2.824747         0.716767        -2.412116
 H         2.274728        -2.191960        -1.232490
 H         3.698609        -2.190459         0.102331
