19
Iteration:   330charge 0 multiplicity 1
 C         0.154923         0.529066        -0.552870
 C         1.446157         0.003946        -0.027711
 C         1.814222        -1.435584         0.446204
 C         2.503397        -0.736942         1.718277
 C         2.592955         0.480887         0.911009
 O         2.763191         1.778917         1.553860
 C         2.857707         0.126073        -0.550610
 O         3.385707         1.204558        -1.294614
 C         3.002916        -1.485347        -0.636841
 H        -0.353756        -0.238647        -1.149842
 H        -0.501770         0.532715         0.348564
 H         0.185761         1.550366        -0.942290
 H         1.158619        -2.216249         0.436804
 H         1.783389        -0.540969         2.509513
 H         3.390035        -1.290952         2.019004
 H         3.220480         2.500196         0.945924
 H         2.935801         1.416696        -2.047213
 H         2.696494        -1.899397        -1.627399
 H         3.960899        -2.009955        -0.209648
