19
Iteration:  1332
 C         0.019169         0.668890        -0.343205
 C         1.408305         0.007920         0.059912
 C         1.904454        -1.380101         0.730304
 C         2.556430        -0.547182         1.911977
 C         2.591312         0.574476         0.862365
 O         2.957789         1.917292         1.130128
 C         2.739305         0.014312        -0.580537
 O         3.359141         0.792335        -1.560946
 C         2.940115        -1.500241        -0.492602
 H        -0.716607         0.550474         0.508635
 H         0.223628         1.789594        -0.476696
 H        -0.395588         0.416012        -1.287849
 H         1.186116        -2.085714         1.075218
 H         1.622601        -0.488811         2.431674
 H         3.309890        -0.927081         2.509753
 H         3.820915         2.044701         0.586053
 H         2.969443         0.539331        -2.531373
 H         2.339378        -1.992431        -1.357697
 H         3.989295        -1.937211        -0.239174
