19
Iteration:  2527
 C         0.040808         0.746330        -0.209206
 C         1.342653         0.043012         0.254442
 C         1.804671        -1.238503         1.000640
 C         2.798536        -0.307305         1.875223
 C         2.593846         0.692635         0.756205
 O         3.084030         1.983246         0.550589
 C         2.691964        -0.166951        -0.521216
 O         3.388457         0.497669        -1.598499
 C         2.668230        -1.629245        -0.229526
 H        -0.725311         0.028557        -0.304350
 H        -0.208390         1.464887         0.535444
 H         0.271968         1.357356        -1.060891
 H         1.099653        -1.885652         1.535284
 H         2.279554        -0.058541         2.796144
 H         3.645477        -0.791770         2.199086
 H         3.489048         2.027084        -0.372518
 H         2.919019         0.108832        -2.450923
 H         2.060573        -2.259758        -0.957393
 H         3.650536        -2.049142        -0.180880
