19
Iteration:  1245
 C         0.083375         0.632250        -0.422062
 C         1.360505         0.025103         0.120674
 C         1.836008        -1.388770         0.666289
 C         2.655566        -0.544812         1.895410
 C         2.628725         0.566430         0.902619
 O         2.926286         1.909684         1.105220
 C         2.799050        -0.006566        -0.488900
 O         3.353622         0.821685        -1.462938
 C         2.850866        -1.474587        -0.530020
 H        -0.022634         1.563313         0.221142
 H         0.131502         0.842147        -1.563071
 H        -0.733139        -0.031038        -0.423452
 H         1.213945        -2.209964         0.900543
 H         1.899433        -0.459235         2.806493
 H         3.718731        -0.940564         2.129962
 H         3.071371         2.314213         0.238664
 H         2.974973         0.597982        -2.263981
 H         2.238247        -1.760302        -1.434722
 H         3.788887        -2.006929        -0.503284
