19
Iteration:  2000charge 0 multiplicity 1
 C         0.060819         0.675185        -0.240930
 C         1.428318         0.059515         0.130927
 C         1.757391        -1.332933         0.877269
 C         2.620748        -0.365265         1.916508
 C         2.712225         0.631841         0.814283
 O         3.049255         1.975027         0.893680
 C         2.757656        -0.087285        -0.538653
 O         3.309372         0.604087        -1.686437
 C         2.787760        -1.572197        -0.346282
 H        -0.326652         1.417810         0.441055
 H         0.003785         1.116815        -1.241788
 H        -0.615019        -0.203792        -0.296159
 H         0.884570        -1.904196         1.113262
 H         1.898264        -0.116372         2.652525
 H         3.618606        -0.885526         2.402103
 H         3.580973         2.250113         0.030392
 H         2.955444         0.292736        -2.469906
 H         2.407175        -2.020673        -1.236691
 H         3.687289        -2.001472         0.029049
