19
Iteration:  2355charge 0 multiplicity 1
 C         0.015053         0.646956        -0.267928
 C         1.371255         0.109905         0.173028
 C         1.779392        -1.220074         0.931603
 C         2.735178        -0.319963         1.858580
 C         2.742688         0.680645         0.725950
 O         3.115708         1.976186         0.728551
 C         2.764562        -0.139243        -0.534646
 O         3.229273         0.532428        -1.586743
 C         2.740045        -1.639930        -0.175533
 H        -0.428246         1.587040         0.134353
 H         0.132796         0.731252        -1.380422
 H        -0.686379        -0.191922         0.015209
 H         0.865848        -1.637723         1.255095
 H         2.278180         0.109229         2.702236
 H         3.576339        -0.851360         2.144725
 H         3.670339         2.078123        -0.088329
 H         2.751167         0.297701        -2.488542
 H         2.198723        -2.045610        -1.021980
 H         3.675162        -2.316246         0.023203
