19
Iteration:  4725
 C         0.104288         0.692647        -0.246184
 C         1.383754         0.253938         0.281456
 C         1.719310        -1.052476         1.164492
 C         2.809289        -0.181864         1.932272
 C         2.725312         0.715901         0.691162
 O         3.382484         1.915556         0.249578
 C         2.669743        -0.240132        -0.522133
 O         3.080889         0.172394        -1.768775
 C         2.530692        -1.655678         0.070525
 H        -0.473507        -0.192315        -0.649607
 H        -0.540893         1.199848         0.499746
 H         0.363269         1.373258        -1.116438
 H         0.980889        -1.699831         1.699261
 H         2.464958         0.368089         2.902397
 H         3.778411        -0.738451         1.980071
 H         3.063884         2.757332         0.573839
 H         3.567715         0.941833        -1.493759
 H         1.926440        -2.280420        -0.617903
 H         3.475623        -2.225275         0.139309
