19
Iteration:   965charge 0 multiplicity 1
 C         0.147192         0.586523        -0.368737
 C         1.381832        -0.027094         0.061598
 C         1.844909        -1.365073         0.674466
 C         2.602138        -0.612395         1.887313
 C         2.514264         0.583545         0.853696
 O         2.815643         1.857322         1.200797
 C         2.808915         0.045725        -0.629358
 O         3.431068         0.954411        -1.432065
 C         2.848247        -1.510696        -0.536293
 H        -0.511862        -0.027013        -0.923478
 H        -0.383754         1.139136         0.437179
 H         0.365865         1.428028        -1.070153
 H         1.131349        -2.176640         0.837712
 H         2.070102        -0.348286         2.790342
 H         3.730568        -0.842462         2.111700
 H         3.642427         2.022093         0.676427
 H         3.466918         0.807893        -2.433746
 H         2.265539        -2.032531        -1.321537
 H         3.824693        -2.043200        -0.604352
