19
Iteration:  4612
 C         0.303347         0.867131        -0.244507
 C         1.439029         0.083444         0.145684
 C         1.787098        -1.142312         1.142146
 C         2.721557        -0.100477         1.985410
 C         2.801709         0.684840         0.605330
 O         3.183454         2.000228         0.551015
 C         2.681139        -0.335954        -0.570834
 O         2.981195         0.241570        -1.822538
 C         2.604792        -1.743004        -0.012861
 H         0.111174         1.728947         0.480475
 H         0.104668         1.009397        -1.235565
 H        -0.582902         0.296758         0.125722
 H         1.133060        -1.698911         1.782456
 H         2.169303         0.588855         2.768372
 H         3.672507        -0.395843         2.556003
 H         2.624173         2.568907        -0.048994
 H         3.960575         0.122176        -2.020501
 H         1.929595        -2.207889        -0.658191
 H         3.504230        -2.344740         0.063423
