19
Iteration:  2794
 C         0.108301         0.777684        -0.295119
 C         1.370321         0.035326         0.086334
 C         1.776093        -1.114254         1.059091
 C         2.829307        -0.362259         1.905578
 C         2.725254         0.640301         0.705649
 O         3.030107         1.970763         0.720665
 C         2.743415        -0.201552        -0.545698
 O         3.206058         0.484295        -1.631417
 C         2.684735        -1.609409        -0.160927
 H        -0.869032         0.199889        -0.184057
 H         0.095960         1.682861         0.389737
 H         0.192232         1.042923        -1.394039
 H         1.171995        -1.922072         1.396833
 H         2.385945        -0.124935         2.851372
 H         3.776571        -0.939687         1.940021
 H         3.447840         2.126214        -0.161657
 H         2.809439         0.324230        -2.598002
 H         2.069358        -2.232067        -0.916706
 H         3.617347        -2.113268         0.283790
