19
Iteration:  3003charge 0 multiplicity 1
 C         0.197497         0.808746        -0.168496
 C         1.443476         0.105272         0.123031
 C         1.805515        -1.250113         0.908605
 C         2.640790        -0.299795         1.948203
 C         2.648277         0.600896         0.826974
 O         2.947797         1.947795         0.836597
 C         2.771317        -0.088118        -0.532647
 O         3.222932         0.401869        -1.827147
 C         2.844708        -1.622616        -0.280084
 H         0.345093         1.816408        -0.651868
 H        -0.366262         0.296432        -0.969069
 H        -0.540969         0.933525         0.683083
 H         1.017117        -1.843122         1.196429
 H         2.028448         0.202367         2.679732
 H         3.619455        -0.686763         2.289085
 H         3.777545         2.319560         0.407847
 H         2.586310        -0.117057        -2.429782
 H         2.149279        -2.118573        -1.050726
 H         3.760053        -2.139546        -0.123013
