19
Iteration:  2891charge 0 multiplicity 1
 C        -0.004798         0.615449        -0.235231
 C         1.384057         0.087986         0.081088
 C         1.722428        -1.157257         0.968200
 C         2.629024        -0.283478         1.870122
 C         2.713032         0.636478         0.634217
 O         3.311952         1.925366         0.859199
 C         2.761247        -0.163092        -0.579981
 O         3.184606         0.517031        -1.693393
 C         2.767266        -1.557829        -0.160745
 H        -0.390102         0.774994         0.776276
 H         0.007859         1.521669        -0.861613
 H        -0.708492        -0.181411        -0.603601
 H         1.093267        -1.931793         1.448664
 H         2.122253         0.315383         2.682475
 H         3.575998        -0.698494         2.197341
 H         3.472381         2.273060         0.003524
 H         2.614350         0.327004        -2.453264
 H         2.321538        -2.259796        -0.911218
 H         3.615058        -2.043575         0.225453
