19
Iteration:  2917
 C         0.022045         0.642184        -0.222765
 C         1.407486         0.161539         0.229685
 C         1.866911        -1.196687         0.950086
 C         2.648826        -0.334641         1.964520
 C         2.599717         0.711479         0.797405
 O         3.214417         2.011474         0.759446
 C         2.667830        -0.193108        -0.613391
 O         3.325513         0.490843        -1.714042
 C         2.697157        -1.665395        -0.333292
 H        -0.180387         1.308201         0.683296
 H         0.100364         1.184646        -1.207529
 H        -0.795237        -0.096443        -0.137608
 H         1.142387        -1.841579         1.382945
 H         1.971351         0.019416         2.684748
 H         3.580372        -0.595755         2.475253
 H         3.353203         2.100547        -0.203535
 H         2.890862         0.308550        -2.518013
 H         2.090096        -2.355607        -0.906257
 H         3.624847        -2.255873        -0.156691
