19
Iteration:  4529
 C         0.070260         0.680325        -0.227612
 C         1.426474         0.153479         0.097248
 C         1.771427        -1.042325         1.149378
 C         2.696323        -0.157677         1.890042
 C         2.746368         0.670740         0.657281
 O         3.404299         1.949352         0.622131
 C         2.680670        -0.253208        -0.595944
 O         3.080355         0.294914        -1.804095
 C         2.559653        -1.719902        -0.030014
 H         0.035362         0.929790        -1.260437
 H        -0.797346        -0.120461        -0.208946
 H        -0.336979         1.430549         0.457814
 H         1.027870        -1.537056         1.783640
 H         2.229100         0.431169         2.662953
 H         3.737918        -0.426685         2.218248
 H         2.832066         2.591636         0.222329
 H         4.014271         0.760098        -1.701931
 H         1.908222        -2.376925        -0.675122
 H         3.513800        -2.265293         0.203699
