19
Iteration:  1500
 C         0.091817         0.691881        -0.384192
 C         1.377296         0.038029         0.087174
 C         1.892346        -1.348942         0.762358
 C         2.669256        -0.462655         1.821057
 C         2.592727         0.587467         0.846612
 O         2.929381         1.883703         1.109222
 C         2.714339        -0.013408        -0.536017
 O         3.370223         0.685829        -1.540638
 C         2.860961        -1.515108        -0.421527
 H        -0.067428         0.548585        -1.471241
 H        -0.895528         0.310382         0.063858
 H         0.087074         1.816574        -0.166642
 H         1.136092        -2.132356         1.075773
 H         2.028460        -0.400522         2.754362
 H         3.639902        -0.861356         2.050179
 H         3.434683         2.324233         0.409209
 H         2.770081         0.957090        -2.213575
 H         2.107319        -2.004663        -1.216321
 H         3.910972        -2.083929        -0.382291
