19
Iteration:  3454
 C        -0.005282         0.708042        -0.159169
 C         1.426596         0.176081         0.098707
 C         1.819584        -1.266049         0.768906
 C         2.496234        -0.424017         1.857744
 C         2.657709         0.648385         0.844094
 O         3.043590         1.940296         0.907980
 C         2.723101        -0.133641        -0.644054
 O         3.343518         0.549194        -1.661566
 C         2.897134        -1.526511        -0.303279
 H         0.008153         1.202494        -1.158063
 H        -0.729120        -0.172563        -0.235349
 H        -0.345579         1.327059         0.718589
 H         0.988725        -1.990747         1.116573
 H         1.905254        -0.145602         2.712284
 H         3.409318        -0.913851         2.317898
 H         3.950205         2.009202         0.744803
 H         3.392621         0.176468        -2.495440
 H         2.561187        -2.242308        -1.136520
 H         3.810437        -1.948663         0.006758
