19
Iteration:  4251charge 0 multiplicity 1
 C         0.099092         0.757434        -0.315178
 C         1.344825         0.084463         0.245939
 C         1.835257        -1.156844         1.063479
 C         2.644274        -0.249983         1.939289
 C         2.699771         0.703635         0.756365
 O         3.180632         1.966808         0.629786
 C         2.698659        -0.170838        -0.506540
 O         3.234970         0.310807        -1.785484
 C         2.712781        -1.651936        -0.190836
 H         0.348500         1.842194        -0.514488
 H        -0.465039         0.327699        -1.083045
 H        -0.517155         0.658077         0.617134
 H         1.061171        -1.806364         1.507988
 H         2.084304         0.087923         2.890893
 H         3.629364        -0.570621         2.424243
 H         3.819726         1.974340        -0.122841
 H         2.441855         0.807214        -2.083844
 H         2.179749        -2.088744        -0.958127
 H         3.683094        -2.159543        -0.013897
