19
Iteration:  1600charge 0 multiplicity 1
 C         0.025572         0.623171        -0.245153
 C         1.371840         0.180328         0.066570
 C         1.832134        -1.230818         0.682813
 C         2.593098        -0.541954         1.799007
 C         2.669117         0.570353         0.824528
 O         2.966186         1.916885         1.086753
 C         2.764352        -0.071442        -0.568495
 O         3.358270         0.680101        -1.607343
 C         2.956015        -1.570588        -0.317389
 H         0.086697         1.706816        -0.480868
 H        -0.457035         0.167670        -1.084205
 H        -0.616857         0.753912         0.716627
 H         0.976755        -1.855981         0.839481
 H         2.000432        -0.232570         2.629967
 H         3.436337        -1.030406         2.192503
 H         2.902516         2.475634         0.235919
 H         2.745214         0.511462        -2.385947
 H         2.610310        -2.235976        -1.198470
 H         3.913250        -2.005280         0.062356
