19
Iteration:  4225
 C         0.214648         0.756431        -0.222368
 C         1.473445         0.141526         0.138682
 C         1.797484        -1.136627         1.032356
 C         2.611336        -0.272045         1.981537
 C         2.784851         0.674263         0.704670
 O         3.058591         1.997448         0.618187
 C         2.699511        -0.243506        -0.595381
 O         3.190009         0.371581        -1.772891
 C         2.669532        -1.697166        -0.128169
 H         0.355050         1.509211        -1.011249
 H        -0.571609        -0.050984        -0.438839
 H        -0.186172         1.241522         0.679033
 H         1.014105        -1.831012         1.402090
 H         1.989308         0.144481         2.739779
 H         3.469070        -0.712029         2.436407
 H         3.998733         2.188712         0.602048
 H         2.391780         0.771754        -2.073750
 H         2.253226        -2.424723        -0.906066
 H         3.627319        -2.106960         0.186285
