19
Iteration:  4654charge 0 multiplicity 1
 C         0.073537         0.826261        -0.188312
 C         1.390375         0.236747         0.117497
 C         1.748080        -1.130534         1.154450
 C         2.742729        -0.160340         1.904289
 C         2.760782         0.717007         0.694661
 O         3.366063         2.012656         0.545497
 C         2.611532        -0.294411        -0.595421
 O         3.022251         0.073273        -1.826985
 C         2.704032        -1.640551        -0.018476
 H        -0.556158         0.982121         0.692861
 H        -0.037092         1.830966        -0.616819
 H        -0.613107         0.162857        -0.814885
 H         0.961797        -1.809450         1.417196
 H         2.372405         0.402385         2.826846
 H         3.769392        -0.667464         2.106873
 H         2.795641         2.482556        -0.044242
 H         4.051697         0.291946        -1.669730
 H         2.346635        -2.513286        -0.562105
 H         3.650308        -1.886725         0.417091
