19
Iteration:  1702
 C         0.099582         0.653635        -0.360117
 C         1.421703         0.076273         0.125141
 C         1.856398        -1.328253         0.794677
 C         2.592741        -0.457444         1.904310
 C         2.685067         0.610323         0.867035
 O         2.986323         1.938412         0.982452
 C         2.739596        -0.046763        -0.534296
 O         3.266680         0.712050        -1.567946
 C         2.848312        -1.592274        -0.423507
 H        -0.475896         0.929281         0.549624
 H         0.129581         1.498376        -1.031144
 H        -0.346006        -0.117737        -1.006076
 H         1.100928        -2.106530         1.134352
 H         1.999707        -0.066047         2.629877
 H         3.441651        -0.979428         2.269853
 H         3.680356         2.175562         0.284742
 H         2.730648         0.789344        -2.441641
 H         2.263647        -2.085217        -1.235369
 H         3.834591        -2.112163        -0.161935
