19
Iteration:  1214charge 0 multiplicity 1
 C         0.064523         0.580235        -0.363369
 C         1.361867         0.019450         0.044816
 C         1.781573        -1.320694         0.595798
 C         2.667499        -0.583227         1.826977
 C         2.612838         0.565779         0.821936
 O         2.966510         1.896720         1.144582
 C         2.698176        -0.047800        -0.598475
 O         3.358629         0.941512        -1.450016
 C         2.862472        -1.539976        -0.342753
 H         0.063009         1.626545         0.053425
 H         0.033149         0.684099        -1.508674
 H        -0.818578         0.020399        -0.002369
 H         1.137451        -2.094246         0.828832
 H         2.018220        -0.485284         2.855592
 H         3.771955        -0.961142         2.050539
 H         3.714012         2.143997         0.483500
 H         3.148860         0.844581        -2.499396
 H         2.672084        -2.174036        -1.197355
 H         3.791089        -1.779536         0.109873
