19
Iteration:   992charge 0 multiplicity 1
 C         0.045326         0.578973        -0.389333
 C         1.394134         0.094597         0.077115
 C         1.825481        -1.311988         0.621435
 C         2.540419        -0.686728         1.766003
 C         2.673190         0.589508         0.859668
 O         2.885257         1.882963         1.144868
 C         2.863587         0.050196        -0.555439
 O         3.357259         0.921998        -1.388921
 C         2.912218        -1.579118        -0.466270
 H        -0.321840         0.030450        -1.332479
 H        -0.665447         0.393301         0.436131
 H         0.052533         1.647765        -0.583996
 H         1.183685        -2.164988         0.969735
 H         1.770437        -0.370531         2.525836
 H         3.401705        -1.089090         2.165481
 H         3.702184         2.151623         0.666440
 H         2.970647         0.974369        -2.316145
 H         2.427068        -2.035351        -1.346195
 H         3.874139        -1.918966        -0.130180
