19
Iteration:   133charge 0 multiplicity 1
 C         0.114170         0.599754        -0.439924
 C         1.383845        -0.042583         0.021345
 C         1.975648        -1.519328         0.368076
 C         2.427216        -0.900155         1.751869
 C         2.425324         0.417883         0.971717
 O         2.695753         1.771180         1.468539
 C         2.835099         0.151084        -0.558942
 O         3.484966         1.214054        -1.200986
 C         3.089842        -1.239916        -0.775027
 H         0.344980         1.217720        -1.284972
 H        -0.599801        -0.099969        -0.810265
 H        -0.174204         1.328602         0.296231
 H         1.454966        -2.345125         0.355829
 H         1.564538        -0.956647         2.371248
 H         3.384366        -1.367802         2.214932
 H         3.539575         2.075143         1.039497
 H         3.117309         1.189753        -2.031846
 H         2.723667        -1.563328        -1.709730
 H         4.058888        -1.519446        -0.666578
