19
Iteration:  2734charge 0 multiplicity 1
 C         0.048564         0.678436        -0.051804
 C         1.382245         0.076447         0.093583
 C         1.687814        -1.184226         0.994697
 C         2.584221        -0.236113         1.843159
 C         2.776047         0.659941         0.688319
 O         3.148711         1.983291         0.721270
 C         2.802785        -0.167957        -0.590221
 O         3.283722         0.432769        -1.797591
 C         2.751562        -1.626425        -0.117924
 H        -0.590992         0.221869        -0.794960
 H        -0.498040         0.751539         0.879708
 H         0.125253         1.739774        -0.258274
 H         0.955839        -1.964283         1.384605
 H         1.995128         0.108809         2.720787
 H         3.401073        -0.681910         2.337948
 H         3.754116         2.270712        -0.077556
 H         2.732065         0.085236        -2.533561
 H         2.518313        -2.226914        -0.953222
 H         3.622599        -2.050030         0.279935
