19
Iteration:  4933charge 0 multiplicity 1
 C         0.186857         0.774941        -0.196273
 C         1.401534         0.178251         0.286220
 C         1.839692        -1.013766         1.273940
 C         2.804175         0.048960         1.868464
 C         2.793428         0.731743         0.569446
 O         3.349041         2.010978         0.406698
 C         2.518955        -0.275565        -0.515401
 O         2.980125         0.001423        -1.875291
 C         2.553237        -1.687556         0.110746
 H        -0.752268         0.126720        -0.381587
 H        -0.256937         1.639519         0.339441
 H         0.349099         1.222234        -1.220628
 H         1.340765        -1.680746         1.938713
 H         2.197710         0.544128         2.716185
 H         3.672128        -0.492662         2.261917
 H         4.072656         1.907737        -0.303310
 H         2.714063        -0.734077        -2.422569
 H         1.943460        -2.422639        -0.427750
 H         3.603580        -2.084112         0.308775
