19
Iteration:  2901
 C         0.010381         0.633579        -0.151769
 C         1.378126         0.117298         0.047613
 C         1.817805        -1.174565         0.915790
 C         2.636017        -0.201187         1.898539
 C         2.683379         0.678003         0.757440
 O         3.265431         1.883390         0.824861
 C         2.732652        -0.148614        -0.585168
 O         3.229092         0.505616        -1.702908
 C         2.737505        -1.649133        -0.199555
 H        -0.537272         1.159616         0.618232
 H         0.006809         1.284483        -1.018359
 H        -0.484571        -0.233645        -0.613468
 H         0.995606        -1.831837         1.355110
 H         2.028343         0.059726         2.838799
 H         3.603742        -0.602919         2.248425
 H         3.376487         2.233613        -0.014474
 H         2.642570         0.269481        -2.516688
 H         2.142075        -2.190330        -0.989216
 H         3.701305        -2.122634         0.037975
