19
Iteration:  2318charge 0 multiplicity 1
 C        -0.026201         0.686014        -0.161802
 C         1.370719         0.055312         0.085989
 C         1.836526        -1.203619         0.943556
 C         2.613658        -0.275911         1.937581
 C         2.584021         0.639001         0.723015
 O         3.173705         1.940019         0.845885
 C         2.699113        -0.090862        -0.581390
 O         3.344818         0.430800        -1.824502
 C         2.842126        -1.587003        -0.154004
 H        -0.047658         1.718049         0.091998
 H        -0.366898         0.577255        -1.146088
 H        -0.874277         0.162122         0.274402
 H         1.223891        -2.074303         1.414370
 H         1.970805         0.129764         2.694065
 H         3.610519        -0.534530         2.372480
 H         3.845876         2.146670         0.096216
 H         2.592776         0.635970        -2.503656
 H         2.289433        -1.975947        -1.055969
 H         3.754147        -2.084163        -0.006556
