19
Iteration:  4781charge 0 multiplicity 1
 C         0.176648         0.852615        -0.200443
 C         1.354906         0.118012         0.225710
 C         1.831971        -1.066888         1.233893
 C         2.735813        -0.068953         1.927192
 C         2.743001         0.693327         0.626423
 O         3.338274         1.944150         0.390625
 C         2.708644        -0.260708        -0.567198
 O         2.943947        -0.003525        -1.895252
 C         2.634086        -1.674931         0.050216
 H         0.264618         1.129022        -1.260490
 H        -0.859215         0.386873        -0.121851
 H        -0.034709         1.799422         0.363645
 H         0.988932        -1.435193         1.774667
 H         2.071959         0.599769         2.630619
 H         3.604886        -0.441151         2.546816
 H         3.206123         2.773825         0.962369
 H         3.656141         0.731785        -1.863962
 H         2.047224        -2.325177        -0.690369
 H         3.644514        -2.093150         0.247400
