19
Iteration:  2955
 C         0.096406         0.795452        -0.187047
 C         1.407359         0.135241         0.185635
 C         1.775980        -1.152245         0.939157
 C         2.797610        -0.353072         1.867247
 C         2.591633         0.605898         0.747270
 O         2.948868         1.971840         0.683948
 C         2.801456        -0.231175        -0.600283
 O         3.316706         0.520144        -1.621929
 C         2.711342        -1.678058        -0.235792
 H        -0.032730         1.785409         0.192935
 H        -0.095548         0.961966        -1.232190
 H        -0.757779         0.247332         0.216249
 H         1.042330        -1.857537         1.497908
 H         2.348913        -0.178568         2.939807
 H         3.784500        -0.878704         1.835389
 H         3.782736         2.043172         0.321820
 H         2.922193         0.376132        -2.569170
 H         2.229131        -2.386186        -0.975821
 H         3.670070        -2.133195         0.273966
