19
Iteration:  2579charge 0 multiplicity 1
 C         0.072707         0.698409        -0.245535
 C         1.439920         0.107864         0.122791
 C         1.742386        -1.200137         0.990347
 C         2.676951        -0.314875         1.873817
 C         2.714760         0.680955         0.704869
 O         3.216807         1.993298         0.784556
 C         2.711658        -0.142188        -0.582074
 O         3.132971         0.411877        -1.810501
 C         2.773656        -1.633950        -0.019001
 H        -0.261587         0.214174        -1.215815
 H        -0.721492         0.397546         0.545494
 H         0.309587         1.777860        -0.246870
 H         0.919455        -1.803077         1.489083
 H         2.111032         0.171867         2.791673
 H         3.698921        -0.575821         2.267658
 H         3.725530         2.255599        -0.107245
 H         2.340980         0.336791        -2.509982
 H         2.280616        -2.193705        -0.905149
 H         3.746973        -2.105677         0.250857
