19
Iteration:   167
 C         0.103773         0.581481        -0.373250
 C         1.467314         0.054975        -0.041773
 C         1.794187        -1.433770         0.363199
 C         2.440820        -0.914132         1.644492
 C         2.577036         0.484482         0.865996
 O         2.596445         1.731330         1.453307
 C         2.973298         0.130618        -0.515589
 O         3.399690         1.252194        -1.204625
 C         3.125879        -1.374646        -0.658277
 H         0.202225         1.617385        -0.421981
 H        -0.422198         0.228079        -1.259973
 H        -0.609360         0.297181         0.443349
 H         1.221112        -2.281164         0.368810
 H         1.819870        -0.818881         2.506815
 H         3.381749        -1.441421         2.064959
 H         3.502376         2.135080         1.093112
 H         3.599609         1.075755        -2.138762
 H         2.867869        -1.835182        -1.587154
 H         4.026453        -1.732777        -0.348056
