19
Iteration:   724
 C         0.098645         0.755815        -0.421489
 C         1.402693        -0.024811         0.053501
 C         1.945705        -1.417525         0.622101
 C         2.497421        -0.702981         1.856977
 C         2.577854         0.534792         0.911629
 O         2.807952         1.819581         1.266955
 C         2.857079        -0.005583        -0.575250
 O         3.316925         1.028987        -1.454736
 C         3.035869        -1.508565        -0.539390
 H         0.452658         1.653090        -0.950203
 H        -0.478085         0.178284        -1.195910
 H        -0.579936         0.930022         0.395530
 H         1.315235        -2.353018         0.621604
 H         1.567543        -0.486410         2.501914
 H         3.445834        -1.102795         2.263707
 H         3.140069         2.320449         0.538739
 H         2.856008         0.941679        -2.266785
 H         2.557754        -1.979985        -1.417980
 H         4.067927        -1.932090        -0.268430
