19
Iteration:  2639
 C         0.126244         0.678140        -0.325493
 C         1.416949         0.161238         0.156826
 C         1.782850        -1.165837         0.997417
 C         2.770972        -0.240975         1.900365
 C         2.723866         0.630231         0.719236
 O         3.138255         1.977131         0.746172
 C         2.755256        -0.231688        -0.564745
 O         3.112167         0.491517        -1.718313
 C         2.679653        -1.686122        -0.073211
 H         0.054952         0.683461        -1.427871
 H        -0.806972         0.331085         0.066944
 H         0.075699         1.766689         0.020623
 H         1.108791        -1.759615         1.631231
 H         2.390387        -0.024513         2.903572
 H         3.764965        -0.721312         2.101123
 H         3.475370         2.170466        -0.112844
 H         2.642636         0.206427        -2.478153
 H         1.984168        -2.217520        -0.808212
 H         3.562510        -2.358348         0.024137
