19
Iteration:   890charge 0 multiplicity 1
 C         0.090600         0.670128        -0.334391
 C         1.420854        -0.062800        -0.071577
 C         1.858709        -1.414882         0.672237
 C         2.426827        -0.535646         1.874488
 C         2.662691         0.564334         0.833904
 O         2.862871         1.837452         1.262063
 C         2.884780        -0.008091        -0.568414
 O         3.323948         0.949112        -1.458874
 C         3.015135        -1.525630        -0.541685
 H        -0.778679         0.133888        -0.039375
 H         0.046566         1.611314         0.177640
 H        -0.065189         0.884926        -1.435694
 H         1.349258        -2.384119         0.699559
 H         1.671726        -0.274795         2.521261
 H         3.196423        -0.982425         2.471626
 H         3.407824         2.270832         0.474094
 H         2.631491         1.111275        -2.208327
 H         2.616339        -1.944962        -1.394944
 H         3.949394        -1.943030        -0.381767
