19
Iteration:  1187
 C         0.021729         0.651592        -0.302882
 C         1.387525         0.049629         0.008513
 C         1.926182        -1.340344         0.682458
 C         2.439211        -0.572347         1.878219
 C         2.559815         0.557978         0.822493
 O         2.986951         1.848045         1.125135
 C         2.857864        -0.033802        -0.503561
 O         3.374645         0.889821        -1.511239
 C         2.925948        -1.484550        -0.507714
 H        -0.070635         1.741711        -0.319983
 H        -0.240853         0.301806        -1.292871
 H        -0.650161         0.234636         0.487071
 H         1.403209        -2.325440         1.020109
 H         1.605331        -0.390507         2.544454
 H         3.300621        -0.907786         2.475755
 H         3.708548         2.040892         0.414967
 H         2.694290         0.847450        -2.348600
 H         2.411128        -2.041611        -1.324464
 H         3.964983        -1.922345        -0.305341
