19
Iteration:   417
 C         0.044181         0.649895        -0.366193
 C         1.426342        -0.091071        -0.144951
 C         1.910742        -1.429926         0.504712
 C         2.512827        -0.716904         1.764423
 C         2.556945         0.486652         0.842548
 O         2.692875         1.717348         1.358364
 C         2.917290         0.100301        -0.568663
 O         3.447715         1.178509        -1.223049
 C         3.012523        -1.443514        -0.603578
 H         0.152711         1.509854        -1.076131
 H        -0.813556         0.001234        -0.600792
 H        -0.282806         1.165414         0.550774
 H         1.309743        -2.335566         0.579732
 H         1.714788        -0.615189         2.464922
 H         3.338350        -1.070570         2.325938
 H         3.159895         2.151562         0.664779
 H         3.364240         1.256458        -2.224621
 H         2.621768        -1.855253        -1.478111
 H         3.940562        -1.887209        -0.395793
