19
Iteration:  2052
 C         0.076798         0.726102        -0.233541
 C         1.360647         0.068605         0.107057
 C         1.748266        -1.259453         0.850141
 C         2.672714        -0.429233         1.855710
 C         2.660446         0.629972         0.761776
 O         3.027537         1.948696         0.867841
 C         2.750757        -0.128429        -0.569838
 O         3.249213         0.599708        -1.677949
 C         2.908826        -1.579508        -0.192982
 H        -0.728312         0.663923         0.523469
 H         0.303997         1.739229        -0.065328
 H        -0.197065         0.517907        -1.310067
 H         1.096137        -2.043965         1.205812
 H         2.027460        -0.101577         2.683703
 H         3.504634        -0.903577         2.241199
 H         3.676284         2.217041         0.114032
 H         2.768326         0.318451        -2.509686
 H         2.428309        -2.253041        -0.992807
 H         3.876359        -1.950228         0.223617
