19
Iteration:  2699charge 0 multiplicity 1
 C        -0.016474         0.739219        -0.178264
 C         1.383396         0.116252         0.159321
 C         1.782140        -1.195793         1.023046
 C         2.725226        -0.205105         1.988847
 C         2.658306         0.705075         0.743358
 O         3.139449         1.938142         0.625343
 C         2.670937        -0.255433        -0.606956
 O         3.346967         0.414551        -1.670088
 C         2.720586        -1.645599        -0.246044
 H        -0.369234         0.706960        -1.211132
 H        -0.741476         0.209973         0.447418
 H         0.108984         1.746736         0.004314
 H         1.267012        -1.894628         1.628346
 H         2.159416         0.017347         2.877279
 H         3.716175        -0.639580         2.117474
 H         3.605205         2.007760        -0.278855
 H         2.706088         0.509627        -2.346375
 H         2.252822        -2.200123        -0.972752
 H         3.753742        -1.900678        -0.061524
