19
Iteration:  3056charge 0 multiplicity 1
 C         0.048560         0.697588        -0.298655
 C         1.360435         0.059743         0.096336
 C         1.829646        -1.145913         0.943580
 C         2.725392        -0.297359         1.909150
 C         2.597939         0.609383         0.747747
 O         3.121230         1.874315         0.836825
 C         2.764538        -0.152281        -0.536636
 O         3.259378         0.525232        -1.658157
 C         2.744781        -1.567495        -0.248967
 H        -0.009891         1.043886        -1.322827
 H        -0.729508        -0.015239        -0.243559
 H        -0.196540         1.592531         0.281958
 H         1.291288        -1.887717         1.375903
 H         2.072776         0.028338         2.779048
 H         3.743027        -0.666207         2.231018
 H         3.729672         2.247251         0.191643
 H         2.529270         0.471983        -2.399369
 H         2.286669        -2.237325        -1.088051
 H         3.667746        -2.103032         0.078426
