19
Iteration:  1009
 C         0.109555         0.547331        -0.353308
 C         1.403379         0.042649         0.024720
 C         1.777705        -1.375629         0.593147
 C         2.496883        -0.643973         1.857959
 C         2.519636         0.583927         0.921990
 O         2.984933         1.910485         1.163514
 C         2.768012         0.004444        -0.537227
 O         3.413375         0.896370        -1.506394
 C         2.956157        -1.421444        -0.444823
 H        -0.094098         0.351994        -1.370034
 H        -0.720053         0.200387         0.272370
 H        -0.009306         1.673047        -0.254324
 H         0.987093        -2.120228         0.626488
 H         1.939197        -0.549824         2.757753
 H         3.580085        -1.119343         2.078550
 H         3.652969         2.007398         0.371602
 H         2.575343         0.987515        -2.127064
 H         2.754955        -1.918727        -1.414995
 H         3.913605        -1.945908        -0.095816
