19
Iteration:  2645charge 0 multiplicity 1
 C         0.112153         0.710332        -0.327408
 C         1.442641         0.135658         0.151905
 C         1.782148        -1.125887         1.007522
 C         2.827528        -0.263638         1.903425
 C         2.721078         0.671385         0.748823
 O         3.112453         1.963262         0.715822
 C         2.728740        -0.245817        -0.555532
 O         3.123834         0.506088        -1.688533
 C         2.683602        -1.725179        -0.103771
 H        -0.002424         0.634382        -1.419488
 H        -0.865904         0.240865         0.043410
 H         0.036266         1.734281        -0.004821
 H         0.898082        -1.662625         1.383332
 H         2.425702        -0.021893         2.932594
 H         3.779473        -0.701867         2.176584
 H         3.485951         2.122470        -0.153705
 H         2.665529         0.175232        -2.454955
 H         2.023505        -2.216547        -0.831361
 H         3.529019        -2.380023         0.084398
