19
Iteration:    75
 C         0.144186         0.507137        -0.534239
 C         1.445691         0.044483         0.014615
 C         1.926980        -1.443515         0.303311
 C         2.462170        -0.908320         1.670355
 C         2.542267         0.439133         0.989140
 O         2.731657         1.693464         1.610406
 C         2.860526         0.193577        -0.507642
 O         3.397711         1.277391        -1.217996
 C         3.031561        -1.307383        -0.713423
 H        -0.116747        -0.121503        -1.475310
 H        -0.660654         0.638530         0.188042
 H         0.216831         1.540004        -0.869609
 H         1.244926        -2.405898         0.329450
 H         1.547185        -0.927411         2.403084
 H         3.349507        -1.382040         2.170944
 H         2.957034         2.350829         0.858679
 H         3.017610         1.184230        -2.179391
 H         2.719115        -1.572824        -1.749358
 H         4.021386        -1.812338        -0.489938
