19
Iteration:  4412
 C         0.241903         0.805984        -0.201837
 C         1.404756         0.124590         0.276062
 C         1.820120        -1.112632         1.038769
 C         2.690448        -0.261006         1.972175
 C         2.726511         0.674290         0.689952
 O         3.140194         1.962736         0.538831
 C         2.761784        -0.208479        -0.548489
 O         3.102087         0.171292        -1.833159
 C         2.632686        -1.610740        -0.143295
 H        -0.663697         0.226691        -0.010533
 H         0.020902         1.823680         0.204892
 H         0.385127         1.120013        -1.240261
 H         1.051580        -1.734708         1.559808
 H         2.153148         0.260416         2.721275
 H         3.610885        -0.563623         2.465011
 H         2.475833         2.670286         0.744749
 H         3.866701         0.879455        -1.818073
 H         1.789028        -2.064090        -0.792643
 H         3.425093        -2.411589        -0.051892
