19
Iteration:  4540charge 0 multiplicity 1
 C         0.016666         0.767812        -0.294492
 C         1.348730         0.193408         0.183112
 C         1.782404        -1.119751         1.162235
 C         2.831071        -0.107908         1.888271
 C         2.709667         0.758355         0.681241
 O         3.391860         1.958041         0.646207
 C         2.612623        -0.315913        -0.577259
 O         3.091754         0.219250        -1.808711
 C         2.636367        -1.731770        -0.104272
 H         0.119497         1.370873        -1.198837
 H        -0.570837        -0.243013        -0.507499
 H        -0.477510         1.473426         0.378873
 H         0.990585        -1.714074         1.651720
 H         2.239473         0.313802         2.687169
 H         3.776833        -0.534178         2.350789
 H         2.763855         2.500778         0.148307
 H         3.951148         0.630687        -1.575997
 H         2.025701        -2.375038        -0.823095
 H         3.524664        -2.287489         0.300331
