19
Iteration:  1470charge 0 multiplicity 1
 C         0.083829         0.687306        -0.370971
 C         1.393386         0.071082         0.061711
 C         1.842128        -1.437731         0.756196
 C         2.573866        -0.495084         1.876613
 C         2.595118         0.602171         0.882125
 O         3.001131         1.914452         1.171217
 C         2.712266        -0.028979        -0.579273
 O         3.349822         0.760226        -1.658192
 C         2.916809        -1.528799        -0.391145
 H        -0.361219         0.043368        -1.123554
 H        -0.566116         0.809879         0.449284
 H         0.167691         1.742929        -0.809494
 H         1.145250        -2.233870         1.093400
 H         1.884440        -0.392314         2.690768
 H         3.591510        -0.958040         2.114553
 H         3.265859         2.367619         0.390479
 H         2.801905         0.789556        -2.435642
 H         2.476600        -2.162933        -1.171774
 H         3.899863        -1.922561        -0.125285
