19
Iteration:  4576
 C         0.183835         0.873479        -0.311429
 C         1.416860         0.126887         0.270451
 C         1.696533        -1.142448         1.146125
 C         2.880039        -0.176626         1.917463
 C         2.699648         0.685514         0.703063
 O         3.205397         1.992545         0.553585
 C         2.693291        -0.218372        -0.530459
 O         3.028078         0.133989        -1.870380
 C         2.637095        -1.660949         0.003631
 H         0.397209         1.897954        -0.525510
 H        -0.210071         0.428781        -1.283537
 H        -0.591132         0.682541         0.416983
 H         1.006098        -1.808742         1.713192
 H         2.401658         0.235946         2.823728
 H         3.778228        -0.907272         2.138028
 H         2.847917         2.547999        -0.167700
 H         3.815299         0.728990        -1.738215
 H         2.140233        -2.179645        -0.851225
 H         3.513880        -2.200468         0.236820
