19
Iteration:  2253
 C         0.117621         0.787881        -0.273366
 C         1.362204         0.034427         0.154880
 C         1.790086        -1.274051         1.003251
 C         2.755904        -0.313331         1.895829
 C         2.677769         0.620286         0.697034
 O         2.974536         1.936442         0.744637
 C         2.710641        -0.151360        -0.556826
 O         3.278097         0.583257        -1.575723
 C         2.781987        -1.633044        -0.263468
 H         0.456235         1.395662        -1.122428
 H        -0.699626         0.073614        -0.612210
 H        -0.370450         1.395625         0.600402
 H         1.119230        -2.104295         1.461958
 H         2.233678         0.119087         2.679063
 H         3.693385        -0.695928         2.165657
 H         3.584026         2.168352        -0.076251
 H         3.041133         0.195818        -2.363096
 H         2.115945        -2.131954        -1.087523
 H         3.753791        -2.265591        -0.140161
