19
Iteration:   604charge 0 multiplicity 1
 C         0.119733         0.578150        -0.358078
 C         1.435097         0.023200         0.003760
 C         1.842660        -1.398770         0.492053
 C         2.448029        -0.669669         1.775957
 C         2.590747         0.490594         0.920460
 O         2.846190         1.830762         1.306872
 C         2.802577         0.066594        -0.579109
 O         3.409462         1.056741        -1.337440
 C         3.024936        -1.479060        -0.586999
 H        -0.581329        -0.248401        -0.359978
 H        -0.165484         1.348963         0.405523
 H         0.148879         1.175866        -1.279799
 H         1.023544        -2.257973         0.714825
 H         1.477075        -0.565871         2.367837
 H         3.266244        -1.146384         2.318802
 H         2.945494         2.227087         0.449230
 H         3.042281         1.096637        -2.329998
 H         2.831763        -2.049259        -1.517158
 H         4.085831        -1.789916        -0.182321
