19
Iteration:  1208
 C         0.074472         0.561489        -0.363326
 C         1.368358        -0.004771         0.041046
 C         1.766169        -1.329345         0.621714
 C         2.613574        -0.534593         1.829158
 C         2.623308         0.569292         0.831088
 O         2.979965         1.886243         1.148854
 C         2.687489        -0.057425        -0.615643
 O         3.356418         0.925147        -1.445911
 C         2.909427        -1.534938        -0.371737
 H         0.057792         1.575093        -0.003655
 H        -0.038098         0.752353        -1.385718
 H        -0.811045         0.164354         0.195926
 H         0.981455        -2.151322         0.846012
 H         2.131988        -0.374866         2.678607
 H         3.556177        -0.843609         2.110077
 H         3.775922         2.097908         0.573091
 H         3.096131         0.939516        -2.392882
 H         2.679602        -2.035733        -1.348966
 H         3.996145        -1.823911        -0.080978
