19
Iteration:  1842
 C         0.089842         0.740245        -0.335847
 C         1.408782         0.102689         0.116978
 C         1.777937        -1.329343         0.810632
 C         2.666069        -0.524428         1.882227
 C         2.633685         0.649096         0.881247
 O         2.933545         1.970460         0.921329
 C         2.795719        -0.080415        -0.546600
 O         3.328937         0.610642        -1.680074
 C         2.837926        -1.555423        -0.284763
 H        -0.401698         0.093849        -1.055789
 H        -0.613596         0.590476         0.432288
 H         0.036558         1.829608        -0.518896
 H         1.104269        -2.124538         1.152589
 H         2.247969        -0.456500         2.977023
 H         3.785310        -0.802289         2.012768
 H         3.685280         2.280443         0.369468
 H         2.563171         0.674560        -2.338156
 H         2.443149        -2.138318        -1.150076
 H         3.756788        -1.956671         0.066224
