19
Iteration:  3218
 C         0.171459         0.848190        -0.233965
 C         1.328473        -0.037555         0.128640
 C         1.858607        -1.264013         0.952784
 C         2.706682        -0.398287         1.934589
 C         2.576835         0.576394         0.715622
 O         2.958772         1.944514         0.798559
 C         2.762140        -0.120122        -0.534777
 O         3.318197         0.610906        -1.643424
 C         2.771618        -1.595676        -0.309977
 H        -0.817437         0.492748         0.235036
 H         0.217017         1.883388         0.248916
 H         0.065518         0.947422        -1.380691
 H         1.215255        -2.064107         1.240652
 H         2.080098        -0.066422         2.838290
 H         3.633381        -0.903101         2.222557
 H         3.269269         2.165164        -0.050989
 H         3.092772         0.204070        -2.537856
 H         2.259219        -2.275530        -0.910894
 H         3.769028        -2.062929        -0.128228
