19
Iteration:   689charge 0 multiplicity 1
 C         0.112024         0.594525        -0.349651
 C         1.418412        -0.004100         0.022114
 C         1.804385        -1.374810         0.608811
 C         2.542288        -0.718478         1.741208
 C         2.535299         0.544165         0.846792
 O         2.744158         1.856782         1.264094
 C         2.911906         0.065265        -0.506449
 O         3.479214         0.997060        -1.398900
 C         2.942503        -1.440535        -0.527323
 H         0.076216         1.069228        -1.384921
 H        -0.753365        -0.165742        -0.321558
 H        -0.221095         1.454506         0.207193
 H         1.147338        -2.175149         0.593019
 H         2.260012        -0.716867         2.828033
 H         3.534682        -1.263245         1.966050
 H         3.087327         2.326643         0.467064
 H         3.111887         0.941302        -2.218625
 H         2.430087        -1.786359        -1.443201
 H         3.877387        -2.014569        -0.446934
