19
Iteration:  2003
 C         0.038084         0.683571        -0.241085
 C         1.423725         0.045793         0.133100
 C         1.807250        -1.296075         0.878961
 C         2.602379        -0.368520         1.915383
 C         2.715150         0.650494         0.817527
 O         3.050655         1.947873         0.893028
 C         2.758719        -0.091490        -0.559362
 O         3.299134         0.598206        -1.677124
 C         2.797163        -1.567640        -0.350560
 H        -0.340238         1.443067         0.459239
 H         0.036648         1.256776        -1.260739
 H        -0.543724        -0.200134        -0.314852
 H         0.936370        -1.946181         1.031778
 H         1.895925        -0.071874         2.704826
 H         3.490978        -0.876151         2.367644
 H         3.541991         2.225311         0.160703
 H         2.937441         0.185324        -2.497008
 H         2.339726        -2.092167        -1.163793
 H         3.730430        -2.017470         0.026842
