19
Iteration:  4895
 C         0.116403         0.803362        -0.207882
 C         1.413012         0.204160         0.238636
 C         1.770359        -0.950262         1.183258
 C         2.766875        -0.054706         1.936996
 C         2.847089         0.729639         0.629325
 O         3.304633         1.922459         0.285953
 C         2.671350        -0.305786        -0.521488
 O         2.900720         0.122893        -1.842452
 C         2.578855        -1.703081         0.159421
 H        -0.448617         0.543602         0.670881
 H         0.171511         1.897333        -0.257096
 H        -0.254229         0.237997        -1.053064
 H         1.181364        -1.536932         1.960579
 H         2.414331         0.457868         2.769932
 H         3.724800        -0.520138         2.197002
 H         4.088211         1.850376        -0.290107
 H         3.682300        -0.280471        -2.114587
 H         2.048069        -2.447352        -0.511629
 H         3.454630        -2.297864         0.580920
