19
Iteration:  1171
 C         0.064108         0.604350        -0.285636
 C         1.469252         0.053644         0.060797
 C         1.848063        -1.435329         0.645639
 C         2.434700        -0.595636         1.903303
 C         2.576893         0.571545         0.953969
 O         2.962611         1.891363         1.117241
 C         2.796159         0.073266        -0.601658
 O         3.411397         0.851151        -1.556886
 C         2.970656        -1.484527        -0.487628
 H         0.333341         1.645774        -0.541478
 H        -0.551277         0.047663        -1.032353
 H        -0.615618         0.619583         0.581717
 H         1.058583        -2.118473         0.676408
 H         1.535229        -0.364971         2.558635
 H         3.307187        -0.980130         2.451137
 H         3.286903         2.190817         0.176221
 H         2.753860         0.988582        -2.349488
 H         2.485529        -1.917930        -1.379874
 H         3.840507        -2.119192        -0.265749
