19
Iteration:  4212
 C         0.190155         0.803006        -0.187624
 C         1.486600         0.095566         0.159813
 C         1.686780        -1.141671         0.983960
 C         2.694105        -0.254458         1.879394
 C         2.739259         0.611922         0.746194
 O         3.031730         2.066786         0.659179
 C         2.712964        -0.262900        -0.617922
 O         3.179741         0.334245        -1.737363
 C         2.797544        -1.719651        -0.136530
 H         0.148464         1.292692        -1.187093
 H        -0.788499         0.111653        -0.343671
 H        -0.033715         1.609529         0.511742
 H         0.832569        -1.549127         1.505218
 H         2.176030         0.246387         2.669722
 H         3.548460        -0.719545         2.377738
 H         4.019531         2.103522         0.853316
 H         2.566630         0.804485        -2.491384
 H         2.013963        -2.431365        -0.714603
 H         3.772289        -2.161129         0.221577
