19
Iteration:  2129
 C        -0.011849         0.658807        -0.290119
 C         1.348317         0.086645         0.132876
 C         1.805270        -1.192570         0.876312
 C         2.747686        -0.451211         1.895959
 C         2.642481         0.654815         0.823622
 O         3.106542         1.995467         0.849887
 C         2.665623        -0.146913        -0.598329
 O         3.277899         0.606439        -1.623105
 C         2.820862        -1.627991        -0.247830
 H        -0.677484        -0.229372        -0.606923
 H        -0.442293         1.431176         0.334796
 H         0.221100         1.231278        -1.298652
 H         0.912928        -1.603671         1.256082
 H         2.278994        -0.159786         2.860806
 H         3.687898        -0.809601         2.154094
 H         3.705919         2.113889         0.075493
 H         3.041351         0.344000        -2.563394
 H         2.456762        -2.403118        -1.057915
 H         3.768890        -2.006072         0.205142
