19
Iteration:  1458charge 0 multiplicity 1
 C         0.146686         0.613556        -0.313956
 C         1.414938         0.036948         0.043598
 C         1.798671        -1.267863         0.732272
 C         2.535295        -0.587803         1.794221
 C         2.616059         0.591845         0.782419
 O         2.977929         1.872293         1.151764
 C         2.832179        -0.000312        -0.571781
 O         3.274994         0.780855        -1.582136
 C         2.896507        -1.475768        -0.304292
 H        -0.497501        -0.053972        -0.883659
 H        -0.411135         0.900236         0.567467
 H         0.389602         1.522478        -0.978655
 H         1.025675        -2.073679         0.840229
 H         1.984579        -0.221776         2.671705
 H         3.497525        -0.967227         2.241258
 H         3.357448         2.244062         0.269322
 H         2.694640         0.475258        -2.419906
 H         2.480940        -1.931150        -1.251166
 H         3.875220        -1.953127        -0.015145
