19
Iteration:   649
 C        -0.014708         0.514517        -0.348453
 C         1.387402         0.041896         0.032623
 C         1.903257        -1.400919         0.555837
 C         2.516618        -0.678700         1.730864
 C         2.471651         0.535615         0.848528
 O         2.846162         1.862871         1.274452
 C         2.739625         0.061143        -0.585269
 O         3.556542         0.957961        -1.302216
 C         2.981366        -1.392312        -0.597748
 H        -0.311239         0.195406        -1.331009
 H        -0.798467         0.478680         0.416201
 H         0.158506         1.650226        -0.367150
 H         1.087475        -2.327989         0.744430
 H         1.865918        -0.463335         2.650779
 H         3.494338        -1.049315         2.020751
 H         3.705999         2.137165         0.951336
 H         3.181737         1.034725        -2.313670
 H         2.573256        -1.891627        -1.503730
 H         4.101988        -1.751406        -0.348213
