19
Iteration:   684
 C         0.046884         0.581361        -0.377843
 C         1.369403         0.053075         0.011922
 C         1.862816        -1.427729         0.598075
 C         2.583950        -0.712823         1.783410
 C         2.531087         0.527790         0.860188
 O         2.743211         1.839245         1.271759
 C         2.914275         0.097052        -0.543278
 O         3.518914         0.997988        -1.386530
 C         2.914383        -1.446546        -0.533629
 H         0.025353         0.968087        -1.390645
 H        -0.768546        -0.080625        -0.269675
 H        -0.054730         1.535719         0.251947
 H         0.999177        -2.192317         0.784629
 H         2.093857        -0.603163         2.749268
 H         3.560029        -1.147932         1.930058
 H         3.197671         2.281462         0.496059
 H         3.058209         0.920862        -2.328350
 H         2.467883        -1.831954        -1.455035
 H         3.880982        -1.989986        -0.403342
