19
Iteration:  4307
 C         0.072097         0.644628        -0.257612
 C         1.402038         0.070725         0.169116
 C         1.750015        -1.111065         1.049226
 C         2.727470        -0.234081         1.937266
 C         2.747047         0.718048         0.705226
 O         3.266202         1.968378         0.661792
 C         2.690385        -0.212942        -0.531178
 O         3.184453         0.448433        -1.723487
 C         2.593434        -1.636054        -0.158841
 H        -0.265683         1.641174         0.209112
 H         0.004814         0.787360        -1.307259
 H        -0.736136        -0.074105         0.067877
 H         0.927981        -1.728728         1.405372
 H         2.134145         0.351019         2.745592
 H         3.785359        -0.624432         2.214363
 H         3.701820         1.911521        -0.191462
 H         3.483580        -0.177005        -2.302284
 H         1.853159        -2.020116        -0.787951
 H         3.441818        -2.290395         0.063635
