19
Iteration:  2346charge 0 multiplicity 1
 C         0.023248         0.602775        -0.235320
 C         1.417069         0.156583         0.157195
 C         1.779624        -1.127410         0.867242
 C         2.725771        -0.317249         1.887247
 C         2.698856         0.661326         0.734766
 O         3.141608         1.994213         0.774979
 C         2.644784        -0.181702        -0.568923
 O         3.268285         0.503956        -1.619846
 C         2.748742        -1.688364        -0.202405
 H        -0.215898         1.650326         0.166313
 H        -0.144936         0.737060        -1.380846
 H        -0.779925        -0.098129         0.046439
 H         1.157569        -1.799192         1.394308
 H         1.976827         0.045032         2.675642
 H         3.715861        -0.708993         2.209422
 H         3.780254         2.199212         0.049551
 H         2.659443         0.423056        -2.487210
 H         2.392627        -2.351180        -0.986062
 H         3.773436        -2.023928         0.245520
