19
Iteration:  1430charge 0 multiplicity 1
 C         0.091611         0.685039        -0.322625
 C         1.466623         0.060257         0.062200
 C         1.867638        -1.369566         0.729335
 C         2.498896        -0.594930         1.876511
 C         2.629795         0.574871         0.842227
 O         2.963097         1.968652         1.073743
 C         2.760362        -0.057211        -0.628776
 O         3.288505         0.874197        -1.520784
 C         2.902269        -1.626928        -0.381903
 H        -0.598232        -0.204938        -0.345467
 H        -0.382854         1.370902         0.465004
 H         0.060742         1.202814        -1.232316
 H         1.089458        -2.086881         0.824361
 H         1.777789        -0.265400         2.626823
 H         3.470506        -0.749592         2.325374
 H         3.800747         2.085473         0.476264
 H         3.095163         0.517315        -2.502071
 H         2.463007        -2.027876        -1.306709
 H         3.917373        -2.063104        -0.197855
