19
Iteration:  2366
 C         0.082308         0.617965        -0.333379
 C         1.402600         0.093103         0.189028
 C         1.739546        -1.213730         1.067827
 C         2.721457        -0.376709         1.897936
 C         2.676191         0.645750         0.750480
 O         3.130822         1.995365         0.679149
 C         2.797526        -0.130687        -0.477846
 O         3.253771         0.599980        -1.646071
 C         2.667183        -1.595497        -0.247314
 H        -0.144178         1.509004         0.294046
 H        -0.067227         0.914255        -1.413493
 H        -0.766353        -0.124994        -0.261246
 H         1.210415        -2.083469         1.427913
 H         2.347350         0.002245         2.794016
 H         3.676500        -0.746383         2.066127
 H         3.495426         2.136951        -0.157164
 H         2.774329         0.078752        -2.389694
 H         1.981816        -2.118795        -0.894371
 H         3.628236        -2.253155        -0.061436
