19
Iteration:   836
 C        -0.037506         0.558556        -0.440998
 C         1.340362         0.045607         0.031556
 C         1.853524        -1.348577         0.624256
 C         2.668179        -0.661739         1.764849
 C         2.571156         0.568206         0.892208
 O         2.893210         1.839571         1.222293
 C         2.744173         0.058780        -0.563732
 O         3.471118         0.962213        -1.345389
 C         2.931852        -1.488740        -0.471721
 H        -0.671320         0.782867         0.361271
 H         0.115645         1.530721        -0.835978
 H        -0.609763         0.028990        -1.243301
 H         1.122915        -2.171417         0.791895
 H         2.059950        -0.603180         2.602522
 H         3.568526        -1.110137         1.923805
 H         3.365296         2.128276         0.314356
 H         3.256651         0.918296        -2.343312
 H         2.573859        -1.861186        -1.385485
 H         3.855830        -1.934331        -0.136434
