19
Iteration:    81
 C         0.148553         0.503109        -0.543020
 C         1.454927         0.081796        -0.002024
 C         1.866636        -1.444781         0.333264
 C         2.462208        -0.917525         1.665487
 C         2.528626         0.424526         0.998979
 O         2.723853         1.685859         1.592522
 C         2.844073         0.220997        -0.519327
 O         3.411183         1.289607        -1.229360
 C         3.082576        -1.350792        -0.693981
 H        -0.105867         0.001049        -1.453061
 H        -0.671422         0.382637         0.228259
 H         0.287567         1.615522        -0.739488
 H         1.194606        -2.284789         0.332432
 H         1.764903        -0.951537         2.443233
 H         3.457630        -1.295682         1.894468
 H         2.862555         2.334283         0.969007
 H         2.974648         1.339218        -2.078891
 H         2.706692        -1.709769        -1.674656
 H         4.042119        -1.919836        -0.476126
