19
Iteration:  1124charge 0 multiplicity 1
 C         0.046637         0.754985        -0.383080
 C         1.339146        -0.019283         0.028741
 C         1.857890        -1.371672         0.722672
 C         2.695691        -0.574974         1.843824
 C         2.472033         0.549687         0.847253
 O         2.829495         1.871564         1.202644
 C         2.809699        -0.009346        -0.590087
 O         3.443510         0.927611        -1.487746
 C         2.908780        -1.610958        -0.496009
 H         0.221729         1.364412        -1.315949
 H        -0.819317         0.027457        -0.396823
 H        -0.287888         1.413789         0.397267
 H         1.182000        -2.200661         1.023382
 H         2.057442        -0.412139         2.848540
 H         3.806195        -0.888297         1.952259
 H         3.658490         2.169030         0.679924
 H         3.211695         0.486218        -2.419751
 H         2.489762        -2.047013        -1.412494
 H         3.874342        -1.999773        -0.366691
