19
Iteration:   173
 C         0.101189         0.578069        -0.371350
 C         1.452752         0.028450        -0.082708
 C         1.804443        -1.414894         0.360999
 C         2.494131        -0.904658         1.646089
 C         2.550078         0.494606         0.887541
 O         2.610361         1.729873         1.480463
 C         2.928927         0.140218        -0.560461
 O         3.425537         1.234151        -1.201309
 C         3.097240        -1.392896        -0.644730
 H         0.170061         1.746627        -0.216761
 H        -0.447133         0.416246        -1.342938
 H        -0.580473         0.124676         0.351027
 H         1.126061        -2.404467         0.357836
 H         1.759779        -0.715336         2.485078
 H         3.432997        -1.293036         1.968033
 H         3.401286         2.235348         1.230889
 H         3.615794         1.191685        -2.235310
 H         2.983506        -1.940176        -1.631238
 H         4.134731        -1.806642        -0.140298
