19
Iteration:  4005
 C         0.140470         0.789936        -0.341516
 C         1.395370         0.171021         0.209765
 C         1.815242        -1.256678         0.978122
 C         2.722992        -0.380437         1.892495
 C         2.719146         0.692382         0.774542
 O         3.070053         1.987522         0.831446
 C         2.708793        -0.100298        -0.525242
 O         3.174491         0.364827        -1.751246
 C         2.722047        -1.640591        -0.199329
 H        -0.089427         1.650102         0.287842
 H         0.335612         1.249436        -1.371968
 H        -0.554490         0.027782        -0.411504
 H         0.991606        -1.887877         1.365721
 H         2.088804        -0.099581         2.751377
 H         3.686612        -0.888576         2.203963
 H         3.643357         2.342366         0.114957
 H         2.644704         0.158171        -2.625958
 H         2.279915        -2.226113        -1.084797
 H         3.697214        -1.956073         0.116965
