19
Iteration:   179charge 0 multiplicity 1
 C         0.092259         0.609701        -0.365244
 C         1.429938        -0.011694        -0.136895
 C         1.867236        -1.424771         0.342342
 C         2.524394        -0.843088         1.654286
 C         2.506845         0.452346         0.922282
 O         2.624423         1.733916         1.510316
 C         2.844262         0.143291        -0.612149
 O         3.478936         1.236318        -1.217658
 C         3.089689        -1.418487        -0.604227
 H         0.016077         1.597616        -0.028916
 H        -0.199238         0.555867        -1.415221
 H        -0.587402         0.061218         0.335815
 H         1.123923        -2.237296         0.335591
 H         1.775288        -0.745720         2.439358
 H         3.529230        -1.277687         1.946084
 H         3.362832         2.266117         1.283446
 H         3.476874         1.114746        -2.150917
 H         3.007586        -1.838569        -1.594956
 H         3.904033        -1.782593        -0.121473
