19
Iteration:  1940
 C         0.063076         0.637051        -0.332688
 C         1.263623        -0.002574         0.224810
 C         1.861524        -1.296922         0.889157
 C         2.681109        -0.387800         1.845901
 C         2.601659         0.625792         0.747922
 O         3.108939         1.951020         0.857405
 C         2.666260        -0.079607        -0.569029
 O         3.366249         0.683950        -1.542172
 C         2.778404        -1.552142        -0.295059
 H         0.337480         1.700943        -0.638933
 H        -0.245044         0.203009        -1.314263
 H        -0.844234         0.793516         0.312111
 H         1.157780        -2.131403         1.236017
 H         2.144071        -0.254747         2.867645
 H         3.656163        -0.844387         2.074101
 H         3.613945         1.940230         0.082084
 H         2.912119         0.694505        -2.434207
 H         2.212995        -2.200585        -1.109494
 H         3.792516        -2.066954        -0.148642
