19
Iteration:  3563charge 0 multiplicity 1
 C         0.223006         0.719369        -0.350117
 C         1.412468         0.070680         0.110306
 C         1.798112        -1.259256         0.852456
 C         2.633609        -0.370073         1.943831
 C         2.720587         0.602433         0.779685
 O         3.033287         1.953828         0.899557
 C         2.709811        -0.162078        -0.551287
 O         3.162167         0.627009        -1.585680
 C         2.802750        -1.607925        -0.339232
 H         0.299545         1.849087        -0.400098
 H         0.024873         0.454148        -1.457578
 H        -0.737053         0.417351         0.168191
 H         0.993280        -1.932693         1.303592
 H         1.947966        -0.021024         2.639596
 H         3.510615        -0.908871         2.204996
 H         3.858789         2.259695         0.585593
 H         2.721266         0.415220        -2.386722
 H         2.210643        -2.438208        -0.925732
 H         3.764212        -1.989407        -0.004922
