19
Iteration:  4663charge 0 multiplicity 1
 C        -0.004632         0.758869        -0.161731
 C         1.428428         0.201907         0.148951
 C         1.718259        -1.089410         1.111249
 C         2.771233        -0.125643         1.856581
 C         2.761394         0.770603         0.677212
 O         3.384323         1.975933         0.568456
 C         2.612303        -0.319664        -0.585055
 O         3.066157         0.093411        -1.849869
 C         2.646540        -1.657222         0.033303
 H        -0.622317         0.632359         0.695128
 H         0.158905         1.884388        -0.511043
 H        -0.501777         0.395142        -1.087326
 H         0.953171        -1.576174         1.715403
 H         2.471793         0.378074         2.725796
 H         3.648273        -0.686634         2.191256
 H         2.856041         2.506957        -0.019816
 H         3.983672         0.603328        -1.796901
 H         2.293982        -2.505292        -0.671678
 H         3.675299        -1.917368         0.370193
