19
Iteration:  1965
 C         0.021670         0.666946        -0.356247
 C         1.387838         0.176967         0.059228
 C         1.863962        -1.272951         0.930873
 C         2.746981        -0.395510         1.880776
 C         2.629439         0.591886         0.785446
 O         3.017217         1.918921         0.858432
 C         2.701135        -0.128913        -0.552535
 O         3.358629         0.645660        -1.524060
 C         2.756219        -1.628889        -0.311521
 H        -0.215887         1.719926        -0.090784
 H        -0.185192         0.508584        -1.365001
 H        -0.793070         0.119595         0.236242
 H         0.995466        -1.764412         1.445626
 H         2.190708        -0.314373         2.856700
 H         3.880525        -0.750239         2.118088
 H         3.473987         2.017096        -0.011205
 H         2.803554         0.848190        -2.205034
 H         2.178190        -2.068686        -1.165226
 H         3.703412        -2.147601        -0.303173
