19
Iteration:    53charge 0 multiplicity 1
 C         0.111506         0.539428        -0.558621
 C         1.390177        -0.042430        -0.013673
 C         1.988367        -1.494902         0.353389
 C         2.392999        -0.864223         1.731876
 C         2.486270         0.424550         0.997313
 O         2.782929         1.669916         1.586204
 C         2.842541         0.223795        -0.444601
 O         3.351194         1.258278        -1.209469
 C         3.129640        -1.206938        -0.822366
 H        -0.556047        -0.263445        -1.071060
 H        -0.352262         1.208625         0.152844
 H         0.334439         1.280247        -1.309675
 H         1.379168        -2.543006         0.346036
 H         1.458631        -0.871199         2.480897
 H         3.333245        -1.215564         2.230479
 H         3.443328         2.112330         1.124998
 H         3.406630         0.902341        -2.049150
 H         2.537140        -1.396223        -1.739213
 H         4.092970        -1.690842        -0.983390
