19
Iteration:  4388
 C         0.102565         0.838161        -0.250901
 C         1.404675         0.150347         0.121861
 C         1.810866        -1.172429         1.079972
 C         2.701151        -0.218001         1.947336
 C         2.762394         0.664097         0.706691
 O         3.218755         2.019059         0.671298
 C         2.637124        -0.269738        -0.573445
 O         3.085415         0.247359        -1.824379
 C         2.695915        -1.719096        -0.122998
 H        -0.693945         0.522687         0.347228
 H         0.247485         1.980546        -0.031315
 H        -0.152449         0.949157        -1.277743
 H         1.202427        -1.853844         1.701017
 H         2.363976         0.315866         2.803342
 H         3.752914        -0.526313         2.376536
 H         2.670614         2.530625         0.091079
 H         3.945133         0.505421        -1.760669
 H         2.188360        -2.424339        -0.889421
 H         3.556183        -2.242402         0.263391
