19
Iteration:  3314
 C         0.040129         0.574131        -0.271691
 C         1.408271         0.072813         0.090147
 C         1.717816        -1.216910         0.825914
 C         2.603715        -0.367709         1.883687
 C         2.637223         0.650384         0.755442
 O         3.213497         1.897884         0.957825
 C         2.756825        -0.092324        -0.529512
 O         3.313604         0.594479        -1.663393
 C         2.759513        -1.497450        -0.302608
 H        -0.337088         1.382448         0.375571
 H        -0.187427         0.848070        -1.303711
 H        -0.571868        -0.270506        -0.085697
 H         0.950350        -1.955151         1.178520
 H         2.122131         0.075984         2.769490
 H         3.564405        -0.795400         2.296813
 H         3.575032         2.358220         0.098172
 H         2.527739         0.447214        -2.341027
 H         2.477065        -2.139478        -1.156763
 H         3.700033        -1.988251         0.135841
