19
Iteration:  3419
 C         0.158093         0.711946        -0.281820
 C         1.425876         0.028646         0.136183
 C         1.763756        -1.306430         0.833122
 C         2.630916        -0.351909         1.824237
 C         2.617916         0.639399         0.783140
 O         2.985388         1.919204         0.978660
 C         2.761567        -0.099574        -0.597406
 O         3.319685         0.571889        -1.656106
 C         2.811288        -1.574857        -0.287906
 H         0.361833         1.600731        -0.926349
 H        -0.563377         0.054508        -0.838098
 H        -0.436125         1.264714         0.554078
 H         1.052297        -2.047043         1.354754
 H         2.096785         0.040995         2.654333
 H         3.612451        -0.745899         2.099906
 H         3.734312         2.130889         0.441017
 H         2.544476         0.706369        -2.193671
 H         2.287379        -2.076209        -1.153441
 H         3.724254        -2.043530         0.026715
