19
Iteration:  1297
 C         0.101223         0.664336        -0.381487
 C         1.387902         0.055764         0.002043
 C         1.796715        -1.277270         0.699075
 C         2.654707        -0.636980         1.790459
 C         2.607832         0.563011         0.865293
 O         2.904290         1.842548         1.134880
 C         2.806343         0.010089        -0.568057
 O         3.285941         0.831658        -1.540934
 C         2.935591        -1.503940        -0.311705
 H        -0.368664         1.147450         0.497960
 H         0.208430         1.481740        -1.091275
 H        -0.599980        -0.122505        -0.738541
 H         0.938462        -1.964985         1.000686
 H         1.992766        -0.396810         2.549232
 H         3.508729        -1.091491         2.175984
 H         3.754496         2.143276         0.628238
 H         2.526879         0.768172        -2.307418
 H         2.860980        -2.012598        -1.332508
 H         3.974482        -1.921276         0.069771
