19
Iteration:  1056
 C         0.121730         0.618075        -0.395401
 C         1.407568         0.000805        -0.007098
 C         1.778932        -1.410936         0.662831
 C         2.575222        -0.519656         1.822277
 C         2.621885         0.581649         0.840918
 O         2.922292         1.865533         1.245227
 C         2.785930        -0.009572        -0.558001
 O         3.333536         0.901587        -1.500974
 C         2.954507        -1.535184        -0.486943
 H         0.036539         0.924767        -1.428464
 H        -0.657406        -0.007706        -0.038541
 H        -0.138950         1.521484         0.175139
 H         1.081145        -2.255726         0.987404
 H         1.710156        -0.365928         2.500559
 H         3.521468        -1.027308         2.287442
 H         3.542146         2.307316         0.640666
 H         2.724772         1.246517        -2.116300
 H         2.652329        -2.151121        -1.317284
 H         3.813858        -1.850785        -0.038121
