19
Iteration:   507charge 0 multiplicity 1
 C         0.092664         0.626620        -0.526783
 C         1.488868         0.060990         0.018856
 C         1.991183        -1.397627         0.567346
 C         2.512795        -0.693033         1.813735
 C         2.483845         0.518028         0.954502
 O         2.748102         1.795722         1.402610
 C         2.825747         0.025379        -0.596116
 O         3.398207         1.049716        -1.354628
 C         2.989436        -1.441641        -0.690125
 H        -0.335450         1.238401         0.212663
 H         0.186221         1.003433        -1.525605
 H        -0.721662        -0.243034        -0.644199
 H         1.173447        -2.300313         0.803356
 H         1.842444        -0.618101         2.720578
 H         3.448243        -1.047385         2.105131
 H         3.602743         1.982733         1.678591
 H         2.962504         1.180759        -2.270651
 H         2.313561        -1.904599        -1.396139
 H         3.898926        -1.878219        -0.834693
