19
Iteration:  2396
 C         0.123819         0.706689        -0.382353
 C         1.387633         0.146812         0.257926
 C         1.849465        -1.212845         1.024674
 C         2.768922        -0.293121         1.893950
 C         2.694235         0.651592         0.737384
 O         3.098390         1.978005         0.752149
 C         2.644184        -0.229207        -0.549903
 O         3.196714         0.525387        -1.568201
 C         2.726053        -1.690833        -0.305255
 H        -0.496067         1.343673         0.201529
 H         0.405045         1.375829        -1.166317
 H        -0.503001        -0.103668        -0.818958
 H         1.088498        -2.010282         1.346653
 H         2.180899         0.166089         2.688010
 H         3.889002        -0.479125         2.154628
 H         3.390989         2.240758        -0.146501
 H         2.661359         0.299421        -2.261678
 H         1.995408        -2.365814        -0.787712
 H         3.663711        -2.156311        -0.170324
