19
Iteration:  4228charge 0 multiplicity 1
 C         0.194939         0.759676        -0.199191
 C         1.478484         0.150079         0.109113
 C         1.790259        -1.174498         1.033486
 C         2.626206        -0.262959         1.988346
 C         2.764354         0.688394         0.702880
 O         3.070539         1.979455         0.614031
 C         2.736461        -0.218724        -0.597640
 O         3.181049         0.365279        -1.769786
 C         2.656174        -1.690209        -0.124081
 H         0.399262         1.472128        -1.042916
 H        -0.453478         0.013207        -0.576162
 H        -0.362854         1.218874         0.662289
 H         1.082174        -1.970464         1.394087
 H         2.008264         0.164128         2.835212
 H         3.449635        -0.724510         2.599297
 H         4.008663         2.192102         0.507831
 H         2.408150         0.810195        -2.119445
 H         2.184612        -2.321581        -0.810684
 H         3.615783        -2.082631         0.164000
