19
Iteration:   467
 C         0.027599         0.582033        -0.419010
 C         1.407574         0.088229         0.000736
 C         1.830048        -1.359057         0.489990
 C         2.470451        -0.870752         1.724369
 C         2.542055         0.516240         0.924954
 O         2.731891         1.778689         1.349914
 C         2.882408         0.123244        -0.490803
 O         3.478768         1.075469        -1.405101
 C         3.101239        -1.366530        -0.519914
 H        -0.062593         1.661285        -0.165187
 H        -0.241050         0.427387        -1.494978
 H        -0.791533         0.066924         0.193473
 H         1.169126        -2.207463         0.501477
 H         1.910381        -0.912349         2.693530
 H         3.510356        -1.365207         1.890011
 H         3.475485         2.099540         0.694684
 H         2.868703         0.988106        -2.190569
 H         2.846021        -1.819551        -1.572667
 H         4.132249        -1.838473        -0.075813
