19
Iteration:   758charge 0 multiplicity 1
 C         0.092660         0.676295        -0.434192
 C         1.351609         0.003438         0.021221
 C         1.887340        -1.371496         0.543833
 C         2.546980        -0.667863         1.764205
 C         2.522619         0.524816         0.872385
 O         2.910274         1.849438         1.289875
 C         2.792802         0.026997        -0.551073
 O         3.294783         0.952031        -1.437723
 C         3.056409        -1.456050        -0.444996
 H         0.076822         1.682387        -0.030016
 H         0.049198         0.607137        -1.519875
 H        -0.819388         0.259688         0.017186
 H         1.181807        -2.282653         0.608543
 H         1.894302        -0.716911         2.682419
 H         3.442092        -1.041304         2.264589
 H         3.593469         2.097769         0.694883
 H         2.644808         1.022664        -2.238250
 H         2.959488        -2.134617        -1.300300
 H         4.014003        -1.828439         0.038016
