19
Iteration:  2427
 C         0.129368         0.698828        -0.312910
 C         1.374027         0.076191         0.113465
 C         1.777180        -1.186362         0.994585
 C         2.698987        -0.380704         1.924659
 C         2.645008         0.683204         0.768252
 O         3.159349         1.995435         0.801284
 C         2.738521        -0.140268        -0.574398
 O         3.157341         0.490490        -1.805604
 C         2.789933        -1.622637        -0.092594
 H        -0.612098         0.672975         0.482259
 H         0.485842         1.712252        -0.435035
 H        -0.362388         0.232030        -1.149297
 H         0.947736        -1.959038         1.201924
 H         2.219295        -0.001741         2.904546
 H         3.844852        -0.581425         2.167900
 H         3.710636         2.042790        -0.058475
 H         2.289491         0.351338        -2.401474
 H         2.206979        -2.430208        -0.626051
 H         3.694847        -2.036994         0.217948
