19
Iteration:  4297
 C        -0.014944         0.636925        -0.249327
 C         1.356230         0.140056         0.136858
 C         1.740226        -1.065843         1.082257
 C         2.745949        -0.246297         1.882366
 C         2.702004         0.606203         0.733134
 O         3.265274         1.958392         0.665690
 C         2.779213        -0.179225        -0.596596
 O         3.201219         0.465208        -1.706334
 C         2.602290        -1.657655        -0.114434
 H         0.046005         1.704653         0.049495
 H         0.053163         0.686401        -1.340098
 H        -0.951214         0.079095        -0.041643
 H         1.113568        -1.649099         1.727424
 H         2.445636         0.285776         2.869512
 H         3.738767        -0.801796         2.220876
 H         3.622580         2.122182        -0.212673
 H         3.297487        -0.163098        -2.377515
 H         2.057087        -2.291658        -0.799938
 H         3.508585        -2.243226         0.151500
