19
Iteration:  1946
 C         0.033359         0.673162        -0.363149
 C         1.294020         0.001327         0.191988
 C         1.852563        -1.303748         0.900440
 C         2.732769        -0.362150         1.889225
 C         2.584365         0.634493         0.788819
 O         3.088670         1.919549         0.855725
 C         2.680702        -0.100997        -0.565430
 O         3.374432         0.677022        -1.537261
 C         2.735325        -1.564859        -0.357680
 H         0.167493         1.741544        -0.425417
 H        -0.265183         0.188958        -1.330563
 H        -0.865749         0.645726         0.238752
 H         1.391652        -2.232442         1.091476
 H         2.270515         0.011094         2.756959
 H         3.729339        -0.829100         2.101377
 H         3.690461         2.015268         0.045711
 H         2.937647         0.769474        -2.325390
 H         2.249581        -2.252170        -0.957250
 H         3.654304        -2.013085        -0.001158
