19
Iteration:  2247charge 0 multiplicity 1
 C         0.101507         0.793535        -0.312896
 C         1.392128         0.004305         0.204040
 C         1.808714        -1.265678         0.986553
 C         2.762229        -0.300032         1.846634
 C         2.666406         0.630321         0.742826
 O         2.989858         1.963911         0.742802
 C         2.667714        -0.145956        -0.602765
 O         3.279638         0.551911        -1.527703
 C         2.777243        -1.616794        -0.303599
 H         0.390005         1.390192        -1.186562
 H        -0.774897         0.145078        -0.456472
 H        -0.295785         1.432810         0.444025
 H         1.413658        -2.086631         1.509947
 H         2.055796        -0.057378         2.763261
 H         3.725324        -0.849858         2.223586
 H         3.588312         2.127475         0.002368
 H         3.037680         0.211083        -2.476582
 H         2.140192        -2.222507        -0.877220
 H         3.620945        -2.222646        -0.023660
