19
Iteration:  4607
 C         0.294791         0.855728        -0.231443
 C         1.476425         0.081986         0.128100
 C         1.817011        -1.102255         1.126192
 C         2.746738        -0.104029         1.959408
 C         2.825449         0.704627         0.646129
 O         3.152158         2.002788         0.554951
 C         2.667269        -0.376720        -0.589184
 O         2.964745         0.244932        -1.798026
 C         2.603265        -1.757919         0.011631
 H         0.159977         1.858859         0.171891
 H        -0.011930         1.119055        -1.350081
 H        -0.574514         0.333120         0.172527
 H         1.100340        -1.591516         1.832232
 H         2.099837         0.424345         2.596138
 H         3.577983        -0.604101         2.529110
 H         2.679622         2.580842        -0.062467
 H         3.912864         0.224571        -1.891259
 H         1.820638        -2.240727        -0.713118
 H         3.519882        -2.384814         0.071107
