19
Iteration:  2866charge 0 multiplicity 1
 C        -0.001299         0.634183        -0.270685
 C         1.363711         0.128896         0.152024
 C         1.794282        -1.170938         0.919345
 C         2.652536        -0.299196         1.938052
 C         2.708361         0.656575         0.747234
 O         3.321167         1.957619         0.825461
 C         2.662747        -0.156427        -0.616349
 O         3.148281         0.529814        -1.755442
 C         2.776951        -1.637376        -0.134048
 H        -0.845274         0.385438         0.322062
 H         0.063122         1.704067        -0.479462
 H        -0.144740         0.127043        -1.217276
 H         1.004849        -1.848851         1.508927
 H         2.045917         0.080250         2.876483
 H         3.700401        -0.708710         2.105814
 H         3.772165         2.037233         0.003582
 H         2.541495         0.284209        -2.592258
 H         2.436685        -2.423602        -0.795216
 H         3.758173        -1.986291         0.410254
