19
Iteration:  2395charge 0 multiplicity 1
 C         0.123550         0.701629        -0.376868
 C         1.396716         0.142955         0.260917
 C         1.857073        -1.212845         1.024615
 C         2.770188        -0.296229         1.895263
 C         2.684257         0.650829         0.748213
 O         3.101097         1.979807         0.744821
 C         2.635131        -0.224159        -0.553376
 O         3.202512         0.529259        -1.570546
 C         2.724670        -1.690008        -0.305041
 H        -0.479063         1.373184         0.185947
 H         0.387361         1.338313        -1.208714
 H        -0.494530        -0.079750        -0.837898
 H         1.060960        -1.996859         1.325962
 H         2.148337         0.161419         2.722410
 H         3.918598        -0.480204         2.170073
 H         3.366740         2.232517        -0.117933
 H         2.668365         0.285050        -2.300318
 H         1.969399        -2.363438        -0.784582
 H         3.627155        -2.167310        -0.168238
