19
Iteration:  2111
 C         0.089324         0.666729        -0.335890
 C         1.420815         0.137500         0.112112
 C         1.824258        -1.267309         0.955928
 C         2.744261        -0.377281         1.879869
 C         2.637264         0.668039         0.780234
 O         3.010265         1.948855         0.813469
 C         2.690700        -0.172088        -0.572282
 O         3.327146         0.647894        -1.564959
 C         2.701644        -1.638502        -0.277799
 H        -0.606957        -0.115609        -0.235458
 H        -0.123690         1.555916         0.262734
 H        -0.014840         1.082725        -1.333037
 H         1.336381        -2.185920         1.360984
 H         2.254203        -0.151502         2.794178
 H         3.728933        -0.924563         1.994541
 H         3.582452         2.181199         0.085849
 H         2.735982         0.567088        -2.364287
 H         2.071747        -2.295643        -0.837609
 H         3.665403        -2.146213        -0.113659
