19
Iteration:  1725
 C         0.111191         0.603046        -0.286371
 C         1.418297        -0.012871         0.101971
 C         1.857736        -1.376983         0.868675
 C         2.563599        -0.376438         1.910868
 C         2.590325         0.644868         0.757336
 O         3.048401         1.921584         1.072461
 C         2.799778        -0.044585        -0.609839
 O         3.353216         0.705908        -1.668393
 C         2.772187        -1.575302        -0.400464
 H        -0.569429         0.444796         0.571373
 H         0.215901         1.705424        -0.289214
 H        -0.264966         0.409045        -1.277789
 H         0.970984        -2.084372         0.970062
 H         1.831174        -0.027324         2.544861
 H         3.430893        -0.625492         2.470421
 H         3.200301         2.483853         0.284089
 H         2.719181         0.813459        -2.399004
 H         2.224073        -2.114943        -1.185991
 H         3.794581        -2.073751        -0.160626
