19
Iteration:  3523charge 0 multiplicity 1
 C         0.114289         0.705398        -0.260615
 C         1.345250         0.013324         0.111272
 C         1.760939        -1.250034         0.879125
 C         2.655458        -0.435833         1.872128
 C         2.632871         0.627177         0.744076
 O         3.015758         1.943988         0.852922
 C         2.691481        -0.090691        -0.551304
 O         3.436488         0.568771        -1.540187
 C         2.760301        -1.547669        -0.302614
 H         0.437720         1.535810        -0.935257
 H        -0.656279         0.205623        -0.875759
 H        -0.381248         1.070084         0.605402
 H         1.224508        -2.059446         1.204231
 H         2.178773        -0.287132         2.927071
 H         3.763571        -0.695396         2.038835
 H         3.168093         2.214335        -0.099776
 H         2.726770         0.868527        -2.222621
 H         2.363347        -1.950608        -1.198440
 H         3.741291        -2.055740        -0.251876
