19
Iteration:  4240charge 0 multiplicity 1
 C         0.112425         0.772283        -0.245095
 C         1.434480         0.107655         0.162186
 C         1.793252        -1.233838         1.045223
 C         2.652863        -0.250822         1.999651
 C         2.701206         0.619896         0.772952
 O         3.129416         1.998815         0.607421
 C         2.792122        -0.165690        -0.543096
 O         3.190717         0.337702        -1.797960
 C         2.704446        -1.612819        -0.136872
 H         0.255395         1.782791        -0.774090
 H        -0.360141         0.142844        -0.918517
 H        -0.614512         1.076606         0.563358
 H         1.109295        -1.981056         1.509690
 H         1.898094         0.352309         2.604270
 H         3.633934        -0.636782         2.434247
 H         3.991725         1.835476         0.099091
 H         2.453577         0.913422        -2.298342
 H         2.021148        -2.087182        -0.751235
 H         3.531936        -2.316702         0.004645
