19
Iteration:  1509
 C         0.167688         0.667799        -0.364052
 C         1.384462         0.035306         0.078959
 C         1.776124        -1.366455         0.787845
 C         2.659911        -0.554387         1.817732
 C         2.617245         0.620381         0.830842
 O         2.903724         1.921984         1.063025
 C         2.771914         0.013892        -0.545887
 O         3.370126         0.746487        -1.537708
 C         2.775051        -1.534625        -0.396719
 H        -0.008325         0.637774        -1.458792
 H        -0.606768        -0.038869         0.126664
 H         0.048266         1.695593        -0.064337
 H         1.257046        -2.291353         1.154059
 H         2.280720        -0.157153         2.822713
 H         3.625287        -0.905375         2.057477
 H         3.539346         2.144698         0.359105
 H         2.722979         0.852515        -2.210515
 H         2.462147        -1.915438        -1.378664
 H         3.792000        -1.982590        -0.213858
