19
Iteration:  1338
 C         0.033785         0.658195        -0.323772
 C         1.410977         0.036577         0.041467
 C         1.918617        -1.339202         0.734990
 C         2.520601        -0.529995         1.861518
 C         2.646831         0.577861         0.856167
 O         2.921155         1.854202         1.109870
 C         2.779544        -0.011214        -0.522482
 O         3.357229         0.800753        -1.559545
 C         2.897474        -1.482165        -0.504956
 H        -0.620151         0.381825         0.469330
 H         0.133742         1.711605        -0.326826
 H        -0.309186         0.448158        -1.409747
 H         1.228064        -2.121650         1.229088
 H         1.594237        -0.414198         2.525962
 H         3.467182        -0.873946         2.502152
 H         3.676813         2.094223         0.547436
 H         3.105067         0.579966        -2.450067
 H         2.274787        -1.942276        -1.200910
 H         3.829603        -1.944778        -0.305622
