19
Iteration:  4857charge 0 multiplicity 1
 C         0.080549         0.848755        -0.191361
 C         1.357927         0.239604         0.262446
 C         1.837257        -1.012927         1.254646
 C         2.886012        -0.027196         1.874313
 C         2.730194         0.695852         0.614843
 O         3.299110         1.968612         0.396554
 C         2.617566        -0.308985        -0.531415
 O         3.054733        -0.006292        -1.835141
 C         2.553364        -1.729193         0.007238
 H        -0.208295         1.658248         0.536978
 H        -0.031874         1.271297        -1.216888
 H        -0.867889         0.249039        -0.188644
 H         1.284822        -1.590284         1.961912
 H         2.234815         0.448574         2.743898
 H         3.940125        -0.383359         2.180182
 H         3.375063         2.054028        -0.534862
 H         4.041926         0.220187        -1.795305
 H         1.709033        -2.244546        -0.400781
 H         3.432018        -2.253267         0.314669
