19
Iteration:  1717charge 0 multiplicity 1
 C         0.159114         0.579776        -0.285911
 C         1.396545         0.016471         0.126044
 C         1.869779        -1.292359         0.839864
 C         2.549822        -0.409842         1.861473
 C         2.663463         0.626378         0.751945
 O         3.019473         1.927995         1.063950
 C         2.765301        -0.067483        -0.642710
 O         3.329547         0.687453        -1.589077
 C         2.767653        -1.533152        -0.387445
 H        -0.634822         0.581274         0.444521
 H         0.476708         1.667471        -0.532607
 H        -0.351280         0.175827        -1.132294
 H         1.240298        -2.190311         1.127819
 H         1.551845        -0.196220         2.506471
 H         3.466215        -0.648487         2.504673
 H         3.406727         2.376631         0.204350
 H         2.537321         0.741867        -2.260220
 H         2.193979        -2.042714        -1.156709
 H         3.802723        -2.035271        -0.361362
