19
Iteration:   776charge 0 multiplicity 1
 C         0.020096         0.614768        -0.453104
 C         1.468912         0.118286         0.060064
 C         1.814481        -1.411634         0.622721
 C         2.496523        -0.762216         1.768567
 C         2.633478         0.549896         0.972725
 O         2.867134         1.872902         1.218875
 C         2.838555         0.045478        -0.513777
 O         3.354802         0.991213        -1.478652
 C         2.998652        -1.492700        -0.482418
 H        -0.411229         1.551072         0.085569
 H         0.066750         0.757018        -1.602323
 H        -0.604552        -0.220253        -0.152002
 H         1.096850        -2.196734         0.735156
 H         2.035048        -0.557901         2.803250
 H         3.397643        -1.356013         2.242637
 H         3.393478         2.289633         0.563137
 H         2.800715         0.999935        -2.346592
 H         2.776883        -1.861974        -1.502708
 H         3.975459        -1.848601        -0.255917
