19
Iteration:  1166charge 0 multiplicity 1
 C         0.105901         0.591402        -0.267977
 C         1.458973         0.028440         0.076520
 C         1.804257        -1.404378         0.653029
 C         2.437995        -0.623792         1.882871
 C         2.574571         0.579006         0.909784
 O         2.952544         1.922318         1.128859
 C         2.773871         0.041883        -0.575554
 O         3.418133         0.851575        -1.566346
 C         2.983754        -1.473514        -0.514514
 H         0.318897         1.605499        -0.697146
 H        -0.459394        -0.003825        -1.021920
 H        -0.467139         0.736240         0.665207
 H         0.877162        -2.084438         0.727523
 H         1.618343        -0.311849         2.651886
 H         3.351154        -1.079818         2.430172
 H         3.161116         2.187876         0.264501
 H         2.870143         1.044244        -2.280629
 H         2.557408        -2.007333        -1.381217
 H         3.903816        -2.017819        -0.223977
