19
Iteration:   824charge 0 multiplicity 1
 C        -0.079856         0.613794        -0.467904
 C         1.344633         0.073097         0.020999
 C         1.931444        -1.397203         0.628075
 C         2.648749        -0.650759         1.798933
 C         2.562483         0.558335         0.856975
 O         2.905821         1.898699         1.256277
 C         2.793361        -0.007866        -0.587597
 O         3.477597         0.958943        -1.306784
 C         2.859480        -1.520923        -0.571052
 H        -0.684972         0.868015         0.361062
 H         0.027070         1.421666        -1.175141
 H        -0.559412        -0.288142        -0.938124
 H         1.380502        -2.341264         0.929611
 H         2.084824        -0.550192         2.690835
 H         3.582200        -0.930546         2.202520
 H         3.297621         2.477114         0.597705
 H         3.191891         0.947042        -2.161693
 H         2.353135        -2.060365        -1.312538
 H         3.798106        -1.962997        -0.414513
