19
Iteration:  4406
 C         0.217501         0.860802        -0.199959
 C         1.448438         0.098933         0.249819
 C         1.819015        -1.156712         1.068604
 C         2.708209        -0.230680         1.947503
 C         2.691210         0.659612         0.656545
 O         3.167313         1.957788         0.576067
 C         2.775566        -0.183223        -0.528986
 O         3.098243         0.182524        -1.847629
 C         2.613768        -1.603428        -0.121577
 H        -0.695341         0.216482        -0.012746
 H         0.010162         1.870278         0.174770
 H         0.165308         0.870423        -1.337558
 H         1.056905        -1.734204         1.557206
 H         2.000408         0.154352         2.778688
 H         3.619644        -0.600807         2.532696
 H         2.413570         2.533539         0.518172
 H         3.840108         0.688084        -1.759110
 H         1.844671        -2.083478        -0.661990
 H         3.543352        -2.204680        -0.233471
