19
Iteration:   489
 C         0.101845         0.566245        -0.452641
 C         1.393373        -0.013489         0.002682
 C         1.847653        -1.442962         0.435235
 C         2.602369        -0.714720         1.745045
 C         2.526486         0.540990         0.882908
 O         2.758592         1.846200         1.428826
 C         2.782617         0.099428        -0.556528
 O         3.463831         1.039727        -1.353539
 C         2.960806        -1.397390        -0.580587
 H        -0.161784         1.515112         0.063095
 H         0.178544         0.750907        -1.544960
 H        -0.762345        -0.132486        -0.340922
 H         1.279345        -2.280347         0.653832
 H         1.833514        -0.559639         2.526164
 H         3.567484        -1.112416         2.240371
 H         3.688785         1.854407         1.416113
 H         2.849726         1.206535        -2.129121
 H         2.754788        -1.892709        -1.612828
 H         3.953174        -1.856073        -0.078008
