19
Iteration:  4809charge 0 multiplicity 1
 C         0.196678         0.854594        -0.137854
 C         1.504819         0.263006         0.175039
 C         1.773502        -1.020603         1.158948
 C         2.749596        -0.139740         1.941896
 C         2.813132         0.729706         0.633819
 O         3.270103         2.010442         0.378806
 C         2.637985        -0.343009        -0.556527
 O         2.955710        -0.012019        -1.887274
 C         2.598640        -1.717873         0.090520
 H         0.149711         1.857229        -0.679568
 H        -0.349706         0.143034        -0.738834
 H        -0.478344         0.968524         0.714986
 H         0.882338        -1.425009         1.731409
 H         2.339403         0.452632         2.749504
 H         3.646485        -0.647582         2.280495
 H         2.583839         2.735833         0.466011
 H         3.984789         0.148099        -1.964299
 H         2.072727        -2.408744        -0.537040
 H         3.590710        -2.015899         0.507407
