19
Iteration:  4262charge 0 multiplicity 1
 C         0.086910         0.700290        -0.260176
 C         1.360220         0.127551         0.153638
 C         1.790530        -1.153466         1.021734
 C         2.741118        -0.225888         1.940711
 C         2.642501         0.731636         0.709999
 O         3.256644         1.983372         0.669232
 C         2.615358        -0.205739        -0.544038
 O         3.219948         0.296868        -1.670106
 C         2.701480        -1.652652        -0.184815
 H         0.290520         1.816978        -0.342687
 H        -0.123066         0.427254        -1.243634
 H        -0.843585         0.680668         0.351535
 H         1.140509        -1.881111         1.537413
 H         2.113303         0.066982         2.847906
 H         3.696876        -0.783636         2.130123
 H         3.504655         2.182560        -0.232630
 H         2.676454         0.725275        -2.256548
 H         2.261335        -2.355832        -0.808788
 H         3.730850        -1.917752         0.076299
