19
Iteration:  4440charge 0 multiplicity 1
 C         0.152031         0.864673        -0.275250
 C         1.340602         0.160436         0.144995
 C         1.773451        -1.148048         1.088868
 C         2.795842        -0.303242         1.914626
 C         2.748703         0.676856         0.666577
 O         3.169334         2.027731         0.510119
 C         2.690698        -0.295100        -0.594286
 O         3.153537         0.226977        -1.741112
 C         2.640634        -1.707738        -0.020645
 H        -0.496503         0.042588        -0.628120
 H        -0.461908         1.327073         0.560133
 H         0.361380         1.670034        -1.013082
 H         0.979053        -1.606277         1.650308
 H         2.299519         0.234059         2.781416
 H         3.890126        -0.663857         2.121814
 H         3.098801         2.556296         1.298545
 H         3.183243         1.204726        -1.667665
 H         2.003381        -2.309363        -0.642872
 H         3.601808        -2.208094         0.204651
