19
Iteration:  3386charge 0 multiplicity 1
 C         0.160987         0.771126        -0.462716
 C         1.415280         0.074460         0.220785
 C         1.786370        -1.344147         0.912216
 C         2.712423        -0.493582         1.952423
 C         2.633703         0.598263         0.894072
 O         3.017048         2.035786         0.879405
 C         2.811621        -0.093675        -0.550688
 O         3.239801         0.691144        -1.686521
 C         2.733863        -1.669569        -0.291320
 H         0.422211         1.850569        -0.472320
 H        -0.030616         0.340166        -1.493511
 H        -0.846264         0.649559         0.168592
 H         1.110403        -2.233401         1.286209
 H         2.265203        -0.315156         2.902265
 H         3.673286        -0.867879         2.343546
 H         3.279769         1.997675        -0.160029
 H         2.446441         0.608433        -2.402608
 H         2.182115        -2.283713        -1.089245
 H         3.666327        -2.169259        -0.165752
