19
Iteration:  3161
 C         0.122892         0.732760        -0.282148
 C         1.430430         0.039075         0.062067
 C         1.801181        -1.213952         0.894324
 C         2.638572        -0.378151         1.890756
 C         2.699929         0.671092         0.849341
 O         3.044445         1.953785         0.938319
 C         2.738831        -0.074988        -0.548407
 O         3.224610         0.450058        -1.795572
 C         2.791041        -1.564945        -0.230337
 H        -0.429604        -0.158989        -0.645448
 H        -0.263461         1.048602         0.736997
 H         0.173303         1.555029        -1.027874
 H         0.999188        -2.003014         1.183719
 H         2.079327         0.026678         2.750819
 H         3.548483        -0.840932         2.291462
 H         3.710596         2.194588         0.221653
 H         2.396987         0.553803        -2.401762
 H         2.332017        -2.126064        -0.979319
 H         3.802109        -1.929536         0.049568
