19
Iteration:   800charge 0 multiplicity 1
 C         0.113541         0.470038        -0.404441
 C         1.433633        -0.004488         0.073340
 C         1.861426        -1.335614         0.581806
 C         2.564687        -0.604427         1.784662
 C         2.520412         0.588828         0.924968
 O         2.877868         1.824855         1.240808
 C         2.810097         0.059041        -0.540968
 O         3.454440         0.961896        -1.392403
 C         2.825904        -1.458854        -0.588173
 H        -0.224613         1.274295         0.314154
 H         0.403847         1.023284        -1.382781
 H        -0.668813        -0.279879        -0.476192
 H         1.161313        -2.190184         0.812834
 H         1.951122        -0.446359         2.746719
 H         3.469117        -0.948999         2.398861
 H         3.313497         2.424838         0.531186
 H         3.069235         1.052893        -2.329997
 H         2.275981        -1.734151        -1.482077
 H         3.704512        -2.018844        -0.568741
