19
Iteration:  2776charge 0 multiplicity 1
 C         0.070923         0.833298        -0.215796
 C         1.369423         0.078196         0.226145
 C         1.818777        -1.308021         0.981825
 C         2.687850        -0.299996         1.852545
 C         2.659717         0.669080         0.707634
 O         3.097707         2.014142         0.748455
 C         2.645925        -0.157742        -0.559484
 O         3.281180         0.436366        -1.713701
 C         2.768147        -1.671113        -0.190569
 H        -0.694515         0.064208        -0.319432
 H        -0.189672         1.678423         0.432551
 H         0.218907         1.262146        -1.169890
 H         1.090648        -1.882701         1.521078
 H         2.257534         0.223433         2.726180
 H         3.769677        -0.552474         2.208611
 H         3.599137         2.125251        -0.091394
 H         2.912211        -0.108566        -2.547926
 H         2.281289        -2.274077        -0.916015
 H         3.768737        -2.155567         0.063795
