19
Iteration:  4316charge 0 multiplicity 1
 C         0.138586         0.657420        -0.271032
 C         1.400262         0.186020         0.213488
 C         1.785956        -1.186785         1.042222
 C         2.692212        -0.180576         1.931730
 C         2.730534         0.707313         0.707427
 O         3.280852         1.982557         0.621896
 C         2.643635        -0.164523        -0.506708
 O         3.159058         0.408627        -1.720419
 C         2.585864        -1.685008        -0.182701
 H        -0.273833         1.463011         0.439929
 H        -0.056621         0.822783        -1.271175
 H        -0.535448        -0.244434        -0.001888
 H         0.981813        -1.890563         1.366137
 H         1.991611         0.043198         2.801281
 H         3.553462        -0.611531         2.462617
 H         3.872213         2.181979        -0.087789
 H         3.598486        -0.200000        -2.205313
 H         1.948119        -2.186712        -0.867873
 H         3.486379        -2.321941        -0.187217
