19
Iteration:  4727charge 0 multiplicity 1
 C         0.124902         0.686850        -0.255907
 C         1.359373         0.257065         0.272571
 C         1.706757        -1.049274         1.178131
 C         2.811426        -0.186345         1.929707
 C         2.722250         0.705433         0.690566
 O         3.377537         1.903560         0.244180
 C         2.675367        -0.228211        -0.507302
 O         3.078498         0.173200        -1.784158
 C         2.540730        -1.658529         0.083897
 H        -0.443923        -0.118937        -0.677563
 H        -0.549533         1.203311         0.513481
 H         0.291354         1.456648        -1.044393
 H         1.033623        -1.675323         1.756039
 H         2.513986         0.284967         2.839182
 H         3.764177        -0.688241         1.990133
 H         3.092037         2.778567         0.627522
 H         3.587888         1.036268        -1.502266
 H         1.947136        -2.303769        -0.662691
 H         3.505380        -2.228047         0.168147
