19
Iteration:   749
 C         0.171405         0.697491        -0.438224
 C         1.381979        -0.095874        -0.025859
 C         1.914913        -1.443716         0.637673
 C         2.521192        -0.623663         1.775700
 C         2.482829         0.562003         0.884179
 O         2.902553         1.762733         1.288044
 C         2.755864         0.045422        -0.556604
 O         3.303348         0.971871        -1.451425
 C         2.994359        -1.402136        -0.457243
 H         0.380737         1.712533        -0.228089
 H        -0.119926         0.634337        -1.434818
 H        -0.637561         0.316484         0.231888
 H         1.232473        -2.348886         0.649538
 H         1.807378        -0.444254         2.541612
 H         3.483084        -0.886537         2.145786
 H         3.565990         2.099939         0.729125
 H         2.717255         1.094313        -2.318785
 H         2.855518        -1.896601        -1.452690
 H         4.070463        -1.594634         0.025395
