19
Iteration:  4617charge 0 multiplicity 1
 C         0.260233         0.874913        -0.210211
 C         1.436128         0.081307         0.178038
 C         1.774322        -1.145878         1.178451
 C         2.699547        -0.083427         1.993702
 C         2.761384         0.638671         0.601417
 O         3.218539         2.006030         0.543348
 C         2.710741        -0.268925        -0.555619
 O         2.997257         0.226257        -1.848161
 C         2.613885        -1.722937        -0.045970
 H         0.184575         1.667342         0.548924
 H         0.251446         1.035607        -1.387981
 H        -0.610187         0.224188        -0.014247
 H         1.064426        -1.879574         1.675927
 H         2.238731         0.531668         2.703981
 H         3.674460        -0.242968         2.410987
 H         2.586479         2.444913        -0.018550
 H         3.946522         0.024087        -2.107358
 H         1.902513        -2.366124        -0.706843
 H         3.557800        -2.336143         0.171010
