19
Iteration:  2248charge 0 multiplicity 1
 C         0.099400         0.795617        -0.307115
 C         1.392394         0.006334         0.197545
 C         1.799607        -1.269236         0.991860
 C         2.763844        -0.297976         1.852108
 C         2.669173         0.629249         0.734594
 O         2.988641         1.958283         0.740648
 C         2.674635        -0.142704        -0.600063
 O         3.278690         0.556137        -1.529611
 C         2.783793        -1.619662        -0.298601
 H         0.411256         1.386515        -1.173337
 H        -0.747738         0.160077        -0.458463
 H        -0.306895         1.389536         0.439756
 H         1.382139        -2.086376         1.501158
 H         2.063342        -0.028924         2.764045
 H         3.726358        -0.839634         2.215937
 H         3.556512         2.123958         0.029039
 H         3.030181         0.192590        -2.488526
 H         2.133809        -2.207186        -0.906892
 H         3.604351        -2.223548        -0.049161
