19
Iteration:  3871
 C         0.024611         0.674213        -0.165699
 C         1.391328         0.159710         0.133712
 C         1.786656        -1.195490         0.940607
 C         2.608882        -0.323823         1.872493
 C         2.612420         0.699207         0.693746
 O         3.204536         1.936359         0.826481
 C         2.708223        -0.165377        -0.552639
 O         3.336857         0.515731        -1.635670
 C         2.742586        -1.647523        -0.304296
 H         0.069650         0.748252        -1.269451
 H        -0.762172        -0.089634         0.030133
 H        -0.276296         1.638353         0.159445
 H         0.996675        -1.788305         1.365964
 H         1.964299        -0.053859         2.752454
 H         3.709441        -0.538593         2.202264
 H         3.587056         2.182605        -0.066516
 H         3.183417         0.125457        -2.599368
 H         2.065930        -2.363859        -0.902875
 H         3.636863        -2.187237        -0.044608
