19
Iteration:  4777
 C         0.172174         0.869814        -0.214417
 C         1.358731         0.134243         0.247735
 C         1.859319        -1.089638         1.253863
 C         2.728618        -0.037333         1.895317
 C         2.712820         0.686935         0.623874
 O         3.353853         1.946619         0.394873
 C         2.668472        -0.251705        -0.601879
 O         2.959208         0.010126        -1.867997
 C         2.629255        -1.697260         0.035607
 H         0.203119         0.971970        -1.367305
 H        -0.725241         0.348751        -0.040281
 H         0.059309         1.856206         0.259214
 H         1.011889        -1.526296         1.855737
 H         2.038472         0.525835         2.607526
 H         3.601209        -0.414990         2.473745
 H         3.281033         2.655476         1.000147
 H         3.526872         0.749155        -1.722599
 H         2.192759        -2.407143        -0.589217
 H         3.575009        -2.157914         0.275451
