19
Iteration:  2716charge 0 multiplicity 1
 C         0.060156         0.708393        -0.072347
 C         1.376012         0.159596         0.078249
 C         1.826833        -1.156046         0.940754
 C         2.644818        -0.293829         1.870322
 C         2.665084         0.671276         0.674362
 O         3.154050         2.015306         0.701545
 C         2.707705        -0.205329        -0.628887
 O         3.288108         0.416659        -1.683624
 C         2.768745        -1.708834        -0.108704
 H        -0.455874         0.375987        -1.007686
 H        -0.601288         0.235117         0.687259
 H        -0.016867         1.879555        -0.047140
 H         0.867907        -1.690704         1.250132
 H         2.054825         0.308837         2.624179
 H         3.615411        -0.686148         2.298327
 H         3.655877         2.072547        -0.211040
 H         2.709458         0.472493        -2.467399
 H         2.113990        -2.496535        -0.690648
 H         3.725487        -2.172398         0.317305
