19
Iteration:   399
 C         0.117384         0.661247        -0.373144
 C         1.395491         0.082177        -0.027118
 C         1.878339        -1.451004         0.418725
 C         2.524051        -0.834290         1.731836
 C         2.438176         0.451855         0.922323
 O         2.689587         1.788038         1.311630
 C         2.826506         0.102247        -0.563052
 O         3.469523         1.160004        -1.263838
 C         3.094756        -1.442934        -0.558889
 H         0.075674         1.134192        -1.317917
 H        -0.557389        -0.182182        -0.412352
 H        -0.308060         1.385021         0.470608
 H         1.134256        -2.364542         0.520966
 H         1.950805        -0.810285         2.753449
 H         3.574639        -1.264219         1.913292
 H         3.288222         2.270863         0.774382
 H         3.236311         0.950148        -2.232358
 H         2.904083        -1.980467        -1.614980
 H         4.178031        -1.811360        -0.113447
