19
Iteration:  4069
 C         0.027593         0.603483        -0.339315
 C         1.367539         0.114718         0.158749
 C         1.765131        -1.125164         0.983214
 C         2.662546        -0.328987         1.956472
 C         2.675088         0.717142         0.730487
 O         3.301157         1.899773         0.740564
 C         2.678605        -0.089649        -0.577101
 O         3.236750         0.510705        -1.662621
 C         2.723105        -1.640519        -0.178482
 H        -0.827442         0.231062         0.265845
 H        -0.114714         1.744407        -0.042651
 H        -0.275126         0.483003        -1.398914
 H         0.890289        -1.666169         1.362810
 H         2.341935        -0.028826         2.938193
 H         3.576647        -0.814508         2.189575
 H         3.790659         2.041282        -0.133318
 H         2.824459         0.007444        -2.506834
 H         2.100079        -2.261841        -0.910464
 H         3.626684        -1.999236         0.271310
