19
Iteration:  4919charge 0 multiplicity 1
 C         0.115465         0.830242        -0.235636
 C         1.387623         0.146667         0.240058
 C         1.823586        -0.990708         1.309590
 C         2.796181         0.001851         1.987960
 C         2.794126         0.749758         0.582619
 O         3.370159         2.012537         0.369692
 C         2.581232        -0.393850        -0.569235
 O         2.919790         0.078099        -1.842472
 C         2.610051        -1.692795         0.036352
 H        -0.687085         0.134803         0.185006
 H         0.046384         1.754761         0.245808
 H         0.127914         0.806193        -1.311037
 H         1.040564        -1.511964         1.960682
 H         2.350124         0.698817         2.649099
 H         3.726586        -0.186383         2.429675
 H         4.146054         1.854916        -0.150335
 H         3.159445        -0.769103        -2.421815
 H         1.890754        -2.397511        -0.364875
 H         3.582267        -2.339054         0.194838
