19
Iteration:   573
 C         0.064136         0.743630        -0.504188
 C         1.387239        -0.011672        -0.027994
 C         1.937674        -1.463744         0.584045
 C         2.559094        -0.685842         1.754757
 C         2.479241         0.462462         0.933350
 O         2.802976         1.750074         1.392083
 C         2.835238         0.106280        -0.507557
 O         3.393607         1.039000        -1.433905
 C         3.056150        -1.440330        -0.542317
 H        -0.825360         0.318802        -0.077183
 H         0.162550         1.721730        -0.057115
 H        -0.185134         0.813883        -1.647832
 H         1.260029        -2.411510         1.017429
 H         1.838632        -0.705343         2.601931
 H         3.444027        -1.079185         2.140138
 H         3.100655         2.159392         0.486732
 H         2.896875         1.025178        -2.187869
 H         2.643324        -1.882096        -1.409107
 H         4.021017        -1.796279        -0.364302
