19
Iteration:  4489
 C         0.005630         0.712355        -0.224752
 C         1.353438         0.231483         0.184041
 C         1.817073        -1.134589         1.051594
 C         2.633962        -0.182575         1.962477
 C         2.794045         0.748027         0.715592
 O         3.423417         1.897891         0.432856
 C         2.650778        -0.226508        -0.539885
 O         3.114266         0.255079        -1.746904
 C         2.646763        -1.678939        -0.083305
 H        -0.216328         0.549382        -1.314788
 H        -0.764663         0.228996         0.403459
 H        -0.058857         1.808747        -0.105420
 H         1.107796        -1.799734         1.620175
 H         1.954181         0.108404         2.762022
 H         3.460848        -0.827506         2.427666
 H         2.864861         2.690279         0.712030
 H         3.854139         0.835333        -1.581787
 H         2.025378        -2.397325        -0.654436
 H         3.684845        -1.972891         0.035873
