19
Iteration:  4555
 C         0.072793         0.799143        -0.329370
 C         1.317099         0.173316         0.253566
 C         1.847514        -1.103020         1.076769
 C         2.798298        -0.201438         1.926078
 C         2.711158         0.705822         0.691789
 O         3.322817         1.974863         0.609498
 C         2.591487        -0.210868        -0.544085
 O         3.072974         0.103827        -1.772525
 C         2.632829        -1.649343        -0.065467
 H         0.341349         1.567343        -1.067322
 H        -0.596474         0.249177        -0.983846
 H        -0.633837         1.133875         0.432644
 H         1.222380        -1.757541         1.708964
 H         2.471874         0.332171         2.857056
 H         3.926271        -0.561059         1.932736
 H         2.935375         2.619836         0.034201
 H         4.011303         0.615455        -1.730128
 H         2.033014        -2.356916        -0.628929
 H         3.625216        -1.968142         0.025244
