19
Iteration:    29
 C         0.106774         0.582926        -0.573015
 C         1.391025         0.012945        -0.040573
 C         1.901749        -1.428535         0.337251
 C         2.566726        -0.957852         1.648618
 C         2.441293         0.407034         0.968134
 O         2.746740         1.657304         1.566636
 C         2.836708         0.230067        -0.552190
 O         3.326473         1.345762        -1.156322
 C         3.096581        -1.313817        -0.651830
 H        -0.585050        -0.360061        -0.427821
 H        -0.128196         1.552233        -0.105274
 H         0.026520         0.877179        -1.656217
 H         1.155896        -2.396062         0.265222
 H         1.748170        -1.003782         2.503592
 H         3.553765        -1.360353         1.931125
 H         3.582171         2.099478         1.257664
 H         3.649573         1.195651        -2.100290
 H         3.008645        -1.919425        -1.604549
 H         4.040266        -1.795804        -0.139567
