19
Iteration:  3226
 C         0.140994         0.847714        -0.232857
 C         1.323372         0.026836         0.168992
 C         1.833311        -1.354297         0.944118
 C         2.698568        -0.391491         1.876427
 C         2.597859         0.588286         0.812629
 O         2.965376         1.987372         0.776301
 C         2.734581        -0.113680        -0.599972
 O         3.365998         0.655834        -1.647502
 C         2.803183        -1.670384        -0.286863
 H        -0.778044         0.440443         0.188920
 H         0.269670         1.907769         0.065883
 H        -0.192197         0.893858        -1.234540
 H         1.065484        -2.112844         1.393225
 H         2.195966        -0.118652         2.771210
 H         3.574814        -0.860305         2.234668
 H         3.258804         2.007872        -0.101839
 H         3.049906         0.106297        -2.489285
 H         2.196771        -2.314659        -0.940486
 H         3.803026        -2.117562        -0.045157
