19
Iteration:   834charge 0 multiplicity 1
 C        -0.059257         0.562801        -0.448722
 C         1.341759         0.055489         0.026573
 C         1.879205        -1.351822         0.618591
 C         2.676683        -0.664824         1.780868
 C         2.576826         0.578008         0.895723
 O         2.893952         1.846719         1.225701
 C         2.749566         0.043984        -0.570291
 O         3.469332         0.958392        -1.341977
 C         2.913150        -1.502426        -0.476434
 H        -0.689832         0.791747         0.405383
 H         0.118398         1.556558        -0.970949
 H        -0.642008         0.023702        -1.220037
 H         1.182962        -2.237663         0.787241
 H         1.950064        -0.549364         2.584362
 H         3.660899        -1.132462         1.910006
 H         3.344609         2.206546         0.387020
 H         3.297513         0.963187        -2.240328
 H         2.547611        -1.896838        -1.381601
 H         3.810164        -1.939631        -0.199547
