19
Iteration:  3478charge 0 multiplicity 1
 C         0.016461         0.652073        -0.130529
 C         1.409157         0.024211         0.028488
 C         1.713390        -1.255734         0.787708
 C         2.570560        -0.451084         1.847715
 C         2.649600         0.639008         0.774361
 O         3.030221         1.968838         0.872803
 C         2.818196        -0.059804        -0.583826
 O         3.399744         0.647335        -1.639218
 C         2.785468        -1.518256        -0.279844
 H        -0.063985         1.189256        -1.109603
 H        -0.788260        -0.124107        -0.087396
 H        -0.115449         1.244669         0.754549
 H         0.930279        -1.898515         1.150815
 H         2.055181         0.033561         2.754043
 H         3.400373        -1.021770         2.432116
 H         3.960984         2.021182         0.546262
 H         3.501823        -0.036599        -2.424613
 H         2.368607        -2.191663        -1.041911
 H         3.643920        -2.115646         0.045843
