19
Iteration:  2775charge 0 multiplicity 1
 C         0.068332         0.834667        -0.209060
 C         1.372070         0.084612         0.230941
 C         1.824889        -1.309585         0.986102
 C         2.674526        -0.292190         1.851397
 C         2.663222         0.672534         0.711440
 O         3.099843         2.012102         0.748713
 C         2.645665        -0.160322        -0.561232
 O         3.280156         0.429427        -1.718694
 C         2.768483        -1.670460        -0.200078
 H        -0.706426         0.052907        -0.340582
 H        -0.205331         1.677281         0.465787
 H         0.244146         1.245817        -1.173310
 H         1.114715        -1.862064         1.508433
 H         2.210775         0.191899         2.713019
 H         3.781716        -0.531674         2.188298
 H         3.580004         2.092545        -0.059905
 H         2.946581        -0.088629        -2.555292
 H         2.281882        -2.286682        -0.956140
 H         3.790835        -2.154144         0.106491
