19
Iteration:  4221
 C         0.217640         0.749816        -0.239903
 C         1.474665         0.125590         0.170997
 C         1.790189        -1.109140         1.024617
 C         2.606363        -0.276482         1.958883
 C         2.793507         0.645997         0.716397
 O         3.046623         2.022318         0.623491
 C         2.674480        -0.264743        -0.592977
 O         3.198732         0.370776        -1.770978
 C         2.692245        -1.704614        -0.139197
 H         0.266367         1.537698        -0.997093
 H        -0.596512        -0.006261        -0.351659
 H        -0.032537         1.310446         0.684382
 H         0.953992        -1.659221         1.423240
 H         1.917061         0.191071         2.700498
 H         3.572398        -0.736380         2.318031
 H         4.031933         2.164780         0.681095
 H         2.334367         0.801098        -2.134240
 H         2.292703        -2.433607        -0.887672
 H         3.673033        -2.148971         0.213652
