19
Iteration:  4837charge 0 multiplicity 1
 C         0.090458         0.888620        -0.133700
 C         1.380993         0.115340         0.150526
 C         1.841680        -1.059331         1.239407
 C         2.836080        -0.005422         1.921086
 C         2.773448         0.713476         0.542220
 O         3.299384         1.992833         0.442075
 C         2.616106        -0.329117        -0.522418
 O         3.065811         0.021729        -1.857262
 C         2.515380        -1.710049         0.066157
 H         0.033813         1.919646         0.062077
 H        -0.110888         0.714859        -1.256596
 H        -0.818578         0.465395         0.345248
 H         1.184762        -1.543178         1.903763
 H         2.642544         0.651987         2.819664
 H         3.863863        -0.471781         1.986020
 H         2.804422         2.602609        -0.129707
 H         4.108903        -0.161567        -1.912752
 H         1.728702        -2.196324        -0.604799
 H         3.395939        -2.280005         0.343680
