19
Iteration:  1457
 C         0.148703         0.608923        -0.314679
 C         1.421556         0.031496         0.044929
 C         1.792290        -1.255081         0.726885
 C         2.539546        -0.589208         1.795202
 C         2.615887         0.589902         0.783658
 O         2.976470         1.869491         1.146808
 C         2.840685         0.002477        -0.570674
 O         3.269322         0.782114        -1.577932
 C         2.893353        -1.476418        -0.304639
 H        -0.519834        -0.061197        -0.863204
 H        -0.428239         0.930784         0.587116
 H         0.386601         1.522309        -0.979172
 H         1.032485        -2.079745         0.836543
 H         1.963593        -0.195331         2.670971
 H         3.473817        -0.979932         2.228741
 H         3.372472         2.265074         0.280000
 H         2.705744         0.464547        -2.400560
 H         2.478728        -1.950278        -1.293021
 H         3.905556        -1.968379         0.007411
