19
Iteration:  2073charge 0 multiplicity 1
 C         0.157214         0.762395        -0.275926
 C         1.406838         0.117130         0.125981
 C         1.888256        -1.288072         0.889796
 C         2.640071        -0.429939         1.977607
 C         2.651421         0.606078         0.825978
 O         2.978104         1.994646         0.798508
 C         2.735214        -0.114376        -0.557105
 O         3.295747         0.573431        -1.636890
 C         2.760087        -1.639988        -0.345535
 H        -0.645069         0.154656         0.274606
 H        -0.094424         1.729910         0.124040
 H         0.041823         0.628877        -1.388502
 H         1.177433        -2.021209         1.258169
 H         2.069555        -0.044942         2.871469
 H         3.573549        -0.791780         2.207299
 H         3.361901         2.133807        -0.135995
 H         2.655845         0.618486        -2.284547
 H         2.162414        -2.350300        -1.042353
 H         3.776445        -1.988899        -0.065907
