19
Iteration:  2664charge 0 multiplicity 1
 C         0.138158         0.708492        -0.301160
 C         1.364686         0.170204         0.210526
 C         1.768401        -1.208824         1.050647
 C         2.793771        -0.332411         1.903774
 C         2.691245         0.627297         0.736189
 O         3.113033         2.056779         0.574700
 C         2.676629        -0.202498        -0.536467
 O         3.234462         0.482409        -1.588997
 C         2.636187        -1.684652        -0.208881
 H         0.029362         0.627790        -1.390377
 H        -0.740261         0.226044         0.144143
 H        -0.043720         1.707512         0.038188
 H         1.241731        -1.827130         1.765223
 H         2.494779         0.016419         2.870086
 H         3.789020        -0.860159         2.114557
 H         3.552739         2.045493        -0.250402
 H         2.805172         0.321626        -2.381838
 H         2.161193        -2.374562        -0.849463
 H         3.646506        -2.123049         0.002511
