19
Iteration:   692charge 0 multiplicity 1
 C         0.142236         0.606003        -0.345808
 C         1.447007        -0.034362         0.026006
 C         1.779000        -1.334714         0.600019
 C         2.539435        -0.728217         1.728030
 C         2.542076         0.555105         0.859020
 O         2.743936         1.865361         1.259788
 C         2.899094         0.043302        -0.495045
 O         3.459559         0.996747        -1.392505
 C         2.950146        -1.436303        -0.527801
 H         0.131962         1.049098        -1.342306
 H        -0.647791        -0.155591        -0.352391
 H        -0.325610         1.406548         0.268675
 H         1.136828        -2.306900         0.525634
 H         2.207655        -0.722499         2.845844
 H         3.487188        -1.252192         1.917792
 H         3.049903         2.386816         0.425022
 H         3.055290         0.921304        -2.317380
 H         2.404416        -1.764496        -1.457227
 H         3.982702        -2.080515        -0.406970
