19
Iteration:  2008
 C         0.036171         0.699847        -0.251790
 C         1.403340         0.061846         0.128561
 C         1.866108        -1.229784         0.862500
 C         2.568711        -0.391854         1.914690
 C         2.698628         0.645438         0.797484
 O         3.048071         1.925559         0.912753
 C         2.761375        -0.093189        -0.591475
 O         3.281702         0.586646        -1.664033
 C         2.818388        -1.568384        -0.327908
 H        -0.351176         1.387414         0.529937
 H         0.119465         1.280700        -1.120418
 H        -0.648764        -0.206780        -0.368877
 H         1.117671        -2.024810         1.043054
 H         1.926383        -0.001232         2.737581
 H         3.445053        -0.857575         2.384193
 H         3.640578         2.231582         0.110866
 H         2.944013         0.113412        -2.425144
 H         2.232052        -2.230288        -1.079752
 H         3.795848        -2.055959        -0.080065
