19
Iteration:   990
 C         0.040596         0.578619        -0.393929
 C         1.398241         0.101818         0.069021
 C         1.836795        -1.324188         0.632164
 C         2.539131        -0.678829         1.767158
 C         2.689195         0.580670         0.853651
 O         2.867951         1.880145         1.150856
 C         2.853777         0.032937        -0.554352
 O         3.367430         0.942053        -1.384171
 C         2.893773        -1.580686        -0.473272
 H        -0.321041         0.044503        -1.265401
 H        -0.632712         0.476588         0.413606
 H        -0.005168         1.659783        -0.640247
 H         1.229040        -2.160031         1.047342
 H         1.810866        -0.369793         2.475012
 H         3.447876        -1.086420         2.220976
 H         3.753421         2.148259         0.649610
 H         2.963267         0.920326        -2.366395
 H         2.512093        -2.028179        -1.326894
 H         3.784651        -1.960956        -0.171626
