19
Iteration:  4657charge 0 multiplicity 1
 C         0.054495         0.803608        -0.180971
 C         1.405590         0.231907         0.120772
 C         1.733799        -1.135076         1.146848
 C         2.753224        -0.143717         1.868986
 C         2.776639         0.747992         0.706268
 O         3.374416         1.998585         0.556070
 C         2.613610        -0.326287        -0.591056
 O         3.037591         0.080625        -1.833368
 C         2.677822        -1.631851        -0.011473
 H        -0.656647         0.854178         0.715336
 H        -0.014513         1.758823        -0.584708
 H        -0.641585         0.321612        -0.915051
 H         0.896192        -1.760081         1.513252
 H         2.436921         0.448809         2.848370
 H         3.717875        -0.691585         2.143940
 H         2.773210         2.508404        -0.077496
 H         3.992891         0.380363        -1.697865
 H         2.389361        -2.471600        -0.557300
 H         3.661042        -1.875775         0.409081
