19
Iteration:   529
 C         0.211872         0.587176        -0.514503
 C         1.438683         0.018156         0.086519
 C         1.875043        -1.406315         0.548628
 C         2.560160        -0.778026         1.792011
 C         2.585340         0.500601         0.921529
 O         2.702751         1.835311         1.339951
 C         2.872692         0.139546        -0.468713
 O         3.360010         1.076417        -1.430439
 C         2.907986        -1.440047        -0.630743
 H        -0.414162         0.905716         0.288692
 H         0.443516         1.389387        -1.202372
 H        -0.453465        -0.173882        -1.102460
 H         1.125138        -2.359063         0.717010
 H         1.753165        -0.823545         2.563327
 H         3.458331        -1.131847         2.204870
 H         3.652847         2.168204         1.583333
 H         2.960314         0.953589        -2.268224
 H         2.644319        -1.646205        -1.631749
 H         3.725945        -1.995925        -0.408945
