19
Iteration:  3296
 C        -0.041903         0.559830        -0.207351
 C         1.395379         0.182736         0.074825
 C         1.813830        -1.189379         0.842115
 C         2.555611        -0.366161         1.883453
 C         2.723026         0.657447         0.834756
 O         3.181915         1.980308         0.947770
 C         2.646167        -0.155134        -0.597588
 O         3.368855         0.553580        -1.642118
 C         2.837523        -1.658687        -0.359462
 H        -0.482276         1.280771         0.540210
 H        -0.087958         1.130448        -1.166749
 H        -0.915751        -0.168962        -0.318482
 H         1.081153        -1.870562         1.140048
 H         1.811586        -0.061565         2.680290
 H         3.387238        -0.755725         2.430467
 H         3.627637         2.192912         0.035420
 H         2.860112         0.892046        -2.478259
 H         2.226393        -2.204475        -1.045940
 H         3.863353        -2.031235        -0.258699
