19
Iteration:  1951
 C         0.007883         0.690715        -0.380134
 C         1.323997         0.048873         0.146689
 C         1.841445        -1.296840         0.910149
 C         2.773836        -0.381599         1.906775
 C         2.580380         0.634148         0.819421
 O         3.068881         1.893145         0.846487
 C         2.688266        -0.107494        -0.576844
 O         3.382374         0.666469        -1.515690
 C         2.730307        -1.578236        -0.369503
 H         0.134877         1.811745        -0.366185
 H        -0.269461         0.258598        -1.367599
 H        -0.849406         0.370761         0.301858
 H         1.382885        -2.302235         1.212066
 H         2.261072         0.190022         2.778031
 H         3.793732        -0.693723         2.144563
 H         3.660087         2.122797         0.087384
 H         2.779861         0.809178        -2.397006
 H         2.141059        -2.321551        -1.081081
 H         3.720028        -1.999042         0.016276
