19
Iteration:  4173
 C         0.098790         0.897522        -0.201359
 C         1.365710         0.118291         0.156129
 C         1.804401        -1.188721         1.042076
 C         2.767842        -0.318731         1.951870
 C         2.653179         0.706710         0.728962
 O         3.008501         2.013385         0.770595
 C         2.681072        -0.168450        -0.601946
 O         3.290034         0.251996        -1.798709
 C         2.735628        -1.621092        -0.204547
 H         0.085055         0.693443        -1.282502
 H        -0.727533         0.458069         0.241051
 H         0.156435         1.993175        -0.103762
 H         1.111491        -2.009585         1.389994
 H         2.165297         0.199859         2.740615
 H         3.750896        -0.744807         2.267606
 H         3.833650         2.132063         0.322317
 H         3.050172        -0.413255        -2.390113
 H         2.164705        -2.179092        -0.891209
 H         3.676117        -2.169477        -0.209356
