19
Iteration:   681charge 0 multiplicity 1
 C         0.019209         0.595172        -0.390129
 C         1.358462         0.069557         0.009338
 C         1.881481        -1.445570         0.587823
 C         2.610799        -0.708397         1.796433
 C         2.528002         0.520791         0.878463
 O         2.744629         1.830566         1.274698
 C         2.897041         0.101690        -0.560323
 O         3.534570         0.998485        -1.391944
 C         2.898280        -1.448342        -0.540545
 H         0.004354         0.894057        -1.435836
 H        -0.823330        -0.086300        -0.206031
 H        -0.023385         1.493843         0.248322
 H         1.033125        -2.185437         0.855499
 H         1.927790        -0.531101         2.735511
 H         3.624572        -1.075379         1.928863
 H         3.255124         2.277215         0.521751
 H         3.121087         0.924464        -2.200705
 H         2.468347        -1.859435        -1.493607
 H         3.952964        -2.013492        -0.337639
