19
Iteration:  1350
 C         0.114984         0.628524        -0.278875
 C         1.421224         0.063579         0.057494
 C         1.840531        -1.327470         0.726107
 C         2.528948        -0.493234         1.849213
 C         2.638357         0.536520         0.806043
 O         2.889718         1.866000         1.100658
 C         2.856556        -0.005618        -0.579246
 O         3.378130         0.837373        -1.499117
 C         2.818366        -1.525449        -0.444336
 H        -0.663658         0.109905         0.250889
 H         0.003586         1.659845        -0.071577
 H        -0.199971         0.384327        -1.354118
 H         1.242762        -2.293615         0.830364
 H         1.938059        -0.086684         2.664852
 H         3.538060        -0.940535         2.234500
 H         3.481773         2.303972         0.381131
 H         3.023405         0.382246        -2.411234
 H         2.292851        -1.897776        -1.301012
 H         3.757849        -2.075629        -0.378142
