19
Iteration:  4161
 C         0.154876         0.797575        -0.219633
 C         1.391610         0.144232         0.221396
 C         1.807979        -1.179439         0.966145
 C         2.692499        -0.271841         1.932359
 C         2.738916         0.631589         0.704456
 O         3.035755         2.086439         0.778106
 C         2.662795        -0.203540        -0.567143
 O         3.263706         0.291113        -1.747859
 C         2.674812        -1.663806        -0.262437
 H        -0.245522         0.562606        -1.205508
 H        -0.674131         0.667494         0.489232
 H         0.281008         1.870899        -0.162399
 H         0.982750        -1.866893         1.340571
 H         2.293395         0.106468         2.877989
 H         3.645528        -0.748326         2.208359
 H         3.630765         2.308024        -0.002457
 H         3.347784        -0.468527        -2.394606
 H         2.182371        -2.244748        -0.980077
 H         3.606701        -1.972370         0.131595
