19
Iteration:   539
 C         0.260440         0.576087        -0.475249
 C         1.436645        -0.006006         0.119186
 C         1.804118        -1.411082         0.496499
 C         2.545785        -0.803404         1.675188
 C         2.599916         0.565970         0.955748
 O         2.688540         1.854190         1.354879
 C         2.834039         0.086683        -0.531337
 O         3.348437         1.049035        -1.400446
 C         2.976071        -1.393640        -0.554314
 H        -0.497521         0.805428         0.273254
 H         0.521504         1.547603        -0.949502
 H        -0.170510        -0.112525        -1.275492
 H         0.975076        -2.220073         0.835248
 H         1.931886        -0.624977         2.587447
 H         3.444015        -1.321526         1.884014
 H         3.662778         2.153986         1.303480
 H         2.886702         0.866074        -2.257235
 H         2.592736        -1.779932        -1.461561
 H         3.896138        -1.815395        -0.325215
