19
Iteration:  4674
 C         0.027750         0.718561        -0.163703
 C         1.338930         0.163276         0.184213
 C         1.758935        -0.948535         1.114174
 C         2.784614        -0.126496         1.886084
 C         2.704896         0.701868         0.593924
 O         3.404477         1.953692         0.573450
 C         2.664623        -0.228304        -0.592597
 O         3.097129         0.113098        -1.872696
 C         2.619594        -1.736304         0.050778
 H        -0.706824         0.461240         0.579227
 H         0.075849         1.879534        -0.076421
 H        -0.271037         0.267861        -1.124741
 H         1.045625        -1.471850         1.741018
 H         2.255124         0.314055         2.662326
 H         3.759457        -0.536601         2.111119
 H         2.952916         2.655036         0.017661
 H         3.884716         0.791582        -1.716316
 H         1.967898        -2.409458        -0.611162
 H         3.549125        -2.251187         0.402391
