19
Iteration:     6
 C         0.082744         0.589749        -0.485128
 C         1.418313         0.008240        -0.059909
 C         1.912631        -1.452946         0.304350
 C         2.498132        -0.905640         1.619025
 C         2.509266         0.405634         0.987348
 O         2.665879         1.648303         1.532364
 C         2.864437         0.182432        -0.504230
 O         3.414230         1.308969        -1.123022
 C         3.101830        -1.312509        -0.669541
 H        -0.714858         0.174458         0.175748
 H         0.245651         1.679300        -0.606898
 H        -0.184166         0.255257        -1.532489
 H         1.253027        -2.363872         0.172619
 H         1.782584        -0.937432         2.474559
 H         3.458234        -1.428189         1.824206
 H         3.238486         2.237285         0.992966
 H         3.174845         1.421036        -2.063611
 H         2.958921        -1.559143        -1.753663
 H         4.175498        -1.650549        -0.405732
