19
Iteration:  2433charge 0 multiplicity 1
 C         0.119817         0.704117        -0.269908
 C         1.396819         0.127596         0.161700
 C         1.771651        -1.167507         0.936128
 C         2.650527        -0.330058         1.992571
 C         2.615503         0.657263         0.778224
 O         3.169009         2.006519         0.803958
 C         2.761712        -0.187113        -0.586979
 O         3.135495         0.456826        -1.839550
 C         2.800019        -1.649767        -0.134264
 H        -0.553515         0.440005         0.606780
 H         0.271383         1.828002        -0.447923
 H        -0.186291         0.351529        -1.308500
 H         1.102440        -1.936172         1.173291
 H         2.280194        -0.015198         2.946873
 H         3.617429        -0.704196         2.227105
 H         3.747334         2.025235        -0.037052
 H         2.476347         0.389442        -2.474489
 H         2.360488        -2.469388        -0.687586
 H         3.943425        -1.862001         0.129942
