19
Iteration:  4352
 C         0.096611         0.736721        -0.261824
 C         1.371071         0.142623         0.144743
 C         1.720391        -1.153960         1.042741
 C         2.713295        -0.235832         1.979059
 C         2.689812         0.655976         0.672781
 O         3.256875         1.934762         0.673002
 C         2.726152        -0.154700        -0.576883
 O         3.067036         0.338147        -1.832384
 C         2.700098        -1.624916        -0.060580
 H        -0.428033         0.981055         0.708183
 H         0.289001         1.750406        -0.672861
 H        -0.554751         0.045848        -0.840430
 H         1.076578        -1.731210         1.685210
 H         2.211455         0.319943         2.856619
 H         3.785052        -0.735872         2.046949
 H         3.747084         2.047088        -0.131861
 H         3.949278         0.139812        -1.777577
 H         2.188620        -2.221308        -0.777713
 H         3.662038        -2.044486         0.251338
