19
Iteration:    32
 C         0.117196         0.578853        -0.579263
 C         1.396152         0.009816        -0.039114
 C         1.933967        -1.438294         0.343551
 C         2.544851        -0.942001         1.666769
 C         2.412295         0.411001         0.990476
 O         2.755490         1.651830         1.570577
 C         2.828691         0.223590        -0.551459
 O         3.331945         1.345998        -1.174233
 C         3.086463        -1.314228        -0.669081
 H        -0.564896        -0.336978        -0.490035
 H        -0.152443         1.468283        -0.035013
 H         0.109357         0.899268        -1.590667
 H         1.211954        -2.392370         0.258606
 H         1.704990        -1.013250         2.493626
 H         3.545161        -1.339362         1.969198
 H         3.644496         2.068197         1.223655
 H         3.667644         1.202116        -2.120380
 H         2.953350        -1.836266        -1.605135
 H         3.959507        -1.699390        -0.261910
