19
Iteration:  1277charge 0 multiplicity 1
 C         0.115634         0.650582        -0.403771
 C         1.446366         0.053147         0.080960
 C         1.819645        -1.401427         0.744511
 C         2.577457        -0.517564         1.886673
 C         2.677065         0.561161         0.868608
 O         2.879049         1.897179         1.172650
 C         2.829145        -0.011610        -0.640347
 O         3.326082         0.878848        -1.524539
 C         2.874767        -1.571354        -0.465234
 H        -0.353957         1.422549         0.285172
 H         0.227516         1.266842        -1.339606
 H        -0.634720        -0.070134        -0.471566
 H         1.211907        -2.257205         0.945787
 H         1.993960        -0.432689         2.780050
 H         3.490281        -0.984588         2.144838
 H         3.412918         2.321983         0.425706
 H         2.594098         0.868549        -2.289899
 H         2.234622        -2.162544        -1.196681
 H         3.790396        -2.222512        -0.402797
