19
Iteration:  4309
 C         0.089821         0.649992        -0.255951
 C         1.407368         0.080204         0.177488
 C         1.753621        -1.128000         1.047834
 C         2.721805        -0.222489         1.943500
 C         2.749357         0.731495         0.695061
 O         3.266227         1.966653         0.657529
 C         2.667760        -0.205499        -0.510634
 O         3.180202         0.443937        -1.723619
 C         2.595153        -1.640777        -0.160694
 H        -0.296965         1.555032         0.242927
 H        -0.033769         0.800854        -1.365052
 H        -0.657629        -0.070611         0.075660
 H         0.932202        -1.754659         1.339074
 H         2.089763         0.284079         2.728859
 H         3.777088        -0.622088         2.246168
 H         3.749584         1.953312        -0.193037
 H         3.548174        -0.211601        -2.351586
 H         1.809987        -2.052749        -0.828461
 H         3.450922        -2.312368         0.013354
