19
Iteration:  2727
 C         0.030048         0.675857        -0.047180
 C         1.425708         0.067924         0.126084
 C         1.687723        -1.137491         0.904133
 C         2.627311        -0.276962         1.856377
 C         2.712418         0.694896         0.619179
 O         3.158342         1.998072         0.716988
 C         2.798213        -0.205442        -0.584329
 O         3.291807         0.445313        -1.765864
 C         2.714817        -1.646491        -0.089545
 H        -0.499308         0.279749        -0.943281
 H        -0.523075         0.530109         0.921627
 H         0.191080         1.832235        -0.177161
 H         1.166982        -1.894198         1.558702
 H         1.899368         0.178610         2.588832
 H         3.453407        -0.801852         2.439818
 H         3.714421         2.247880        -0.055528
 H         2.670516         0.186841        -2.368664
 H         2.392099        -2.448387        -0.910527
 H         3.709533        -1.958510         0.390731
