19
Iteration:  3886
 C        -0.014605         0.683999        -0.215244
 C         1.337916         0.114528         0.116220
 C         1.807521        -1.211607         0.924157
 C         2.718015        -0.261497         1.806823
 C         2.708523         0.649438         0.683809
 O         3.153189         1.977626         0.886034
 C         2.630540        -0.162867        -0.658663
 O         3.433489         0.422072        -1.594546
 C         2.659897        -1.623811        -0.218993
 H        -0.221803         1.073997        -1.201173
 H        -0.793710        -0.036928         0.050435
 H        -0.208857         1.454902         0.536505
 H         1.127498        -1.994269         1.372682
 H         2.076108         0.244973         2.542103
 H         3.587071        -0.779176         2.241819
 H         3.430464         2.375758         0.078031
 H         2.933012         0.408456        -2.408429
 H         2.182982        -2.101993        -1.019858
 H         3.663784        -1.989155        -0.020064
