19
Iteration:  3750charge 0 multiplicity 1
 C         0.058979         0.729677        -0.249883
 C         1.455733         0.089538         0.085703
 C         1.819357        -1.231463         0.924734
 C         2.611494        -0.405942         1.908729
 C         2.698697         0.658315         0.764747
 O         3.055445         2.005272         0.951934
 C         2.818226        -0.145878        -0.553078
 O         3.291818         0.499383        -1.774131
 C         2.719056        -1.612070        -0.224653
 H        -0.631549        -0.074498        -0.020799
 H        -0.159486         1.634967         0.291982
 H         0.045521         0.865018        -1.281041
 H         0.951476        -1.713197         1.238536
 H         1.972855        -0.000846         2.664107
 H         3.659324        -0.782619         2.073314
 H         3.451890         2.163047         0.101131
 H         2.720145         0.319319        -2.450507
 H         2.030006        -1.930659        -1.084345
 H         3.559899        -2.226816        -0.155722
