19
Iteration:  2751charge 0 multiplicity 1
 C         0.043068         0.780591        -0.112520
 C         1.413684         0.068430         0.079944
 C         1.839304        -1.173267         0.935087
 C         2.602521        -0.278381         1.981284
 C         2.661366         0.660179         0.698673
 O         3.140091         1.968347         0.755773
 C         2.672815        -0.159064        -0.611896
 O         3.266884         0.374799        -1.753242
 C         2.803610        -1.592104        -0.194133
 H        -0.651623         0.026424        -0.573271
 H        -0.269042         1.084038         0.933541
 H         0.101056         1.685146        -0.765003
 H         1.119533        -1.861163         1.329796
 H         1.984392         0.307359         2.649205
 H         3.530420        -0.684309         2.601037
 H         3.722572         2.104624        -0.095991
 H         2.864046        -0.198242        -2.495821
 H         2.098498        -2.288863        -0.789413
 H         3.882289        -2.029260        -0.066864
