19
Iteration:  3319
 C         0.064209         0.571584        -0.281742
 C         1.389657         0.099377         0.088675
 C         1.716203        -1.220638         0.832878
 C         2.616673        -0.398854         1.816087
 C         2.624656         0.653067         0.815759
 O         3.212201         1.882979         0.949222
 C         2.781072        -0.081479        -0.507377
 O         3.301658         0.632892        -1.712909
 C         2.770543        -1.526608        -0.231267
 H        -0.373475         1.419743         0.295636
 H        -0.135375         0.808482        -1.352965
 H        -0.802415        -0.194758        -0.089969
 H         1.100806        -2.019244         1.193304
 H         2.121664         0.057150         2.703743
 H         3.545332        -0.734926         2.254581
 H         3.501359         2.241920         0.128828
 H         2.665486         0.418883        -2.327830
 H         2.257182        -2.111800        -1.009828
 H         3.679071        -1.979840         0.121484
