19
Iteration:  3358charge 0 multiplicity 1
 C         0.169555         0.684429        -0.444378
 C         1.379268         0.067889         0.138323
 C         1.784670        -1.269042         0.905520
 C         2.723161        -0.351803         1.836543
 C         2.717615         0.590452         0.791045
 O         3.085678         1.928937         0.940693
 C         2.655564        -0.093478        -0.539096
 O         3.147664         0.626540        -1.498373
 C         2.757032        -1.573783        -0.316517
 H         0.288376         1.734345        -0.167377
 H         0.239610         0.659289        -1.527856
 H        -0.672824         0.196716        -0.102170
 H         1.182335        -2.110384         1.244656
 H         2.102607        -0.026237         2.740180
 H         3.720494        -0.743601         2.226020
 H         3.534802         1.998694        -0.011374
 H         2.885177         0.317156        -2.445045
 H         2.243760        -2.195159        -1.062022
 H         3.820607        -2.055983        -0.322721
