19
Iteration:  1901charge 0 multiplicity 1
 C         0.051011         0.665621        -0.289355
 C         1.475972         0.078911         0.055120
 C         1.801239        -1.210113         0.794776
 C         2.573638        -0.429265         1.950225
 C         2.704820         0.601393         0.798680
 O         3.054536         1.907488         0.961978
 C         2.810178        -0.123239        -0.582815
 O         3.199939         0.708537        -1.669208
 C         2.870375        -1.643500        -0.250752
 H         0.162258         1.167940        -1.246400
 H        -0.635396        -0.207368        -0.278126
 H        -0.355624         1.476942         0.361402
 H         0.974871        -1.868865         1.115411
 H         1.911082        -0.167289         2.725246
 H         3.587487        -0.766812         2.314815
 H         3.283375         2.455005         0.202937
 H         2.814692         0.383954        -2.432230
 H         2.297807        -2.101614        -1.004676
 H         3.772943        -2.189526        -0.056723
