19
Iteration:   104charge 0 multiplicity 1
 C         0.061499         0.580168        -0.551014
 C         1.427674         0.054584        -0.106131
 C         1.876930        -1.416995         0.336369
 C         2.637387        -0.859104         1.663254
 C         2.460491         0.399803         0.935567
 O         2.689826         1.651301         1.580667
 C         2.893756         0.138066        -0.542358
 O         3.457104         1.259930        -1.184715
 C         3.008876        -1.345777        -0.606180
 H        -0.025788         0.725815        -1.646995
 H        -0.803229        -0.024285        -0.162066
 H        -0.051506         1.594761        -0.017583
 H         1.197440        -2.354841         0.432732
 H         1.916148        -0.948793         2.462251
 H         3.632652        -1.217934         1.789822
 H         3.070704         2.380394         0.913286
 H         2.690076         1.547208        -1.751675
 H         2.974580        -1.743295        -1.662257
 H         3.973618        -1.826476        -0.123609
