19
Iteration:  4198
 C         0.135179         0.868162        -0.197783
 C         1.385586         0.116853         0.105777
 C         1.774600        -1.173450         1.018556
 C         2.726876        -0.284719         1.910495
 C         2.703329         0.701471         0.647037
 O         3.016279         2.016820         0.722476
 C         2.725500        -0.230988        -0.572901
 O         3.253366         0.303638        -1.778915
 C         2.709787        -1.694419        -0.103960
 H         0.166261         1.143164        -1.283637
 H        -0.679886         0.190527         0.047047
 H         0.029004         1.827398         0.367793
 H         1.092870        -1.946177         1.351639
 H         2.207066         0.204430         2.793570
 H         3.757321        -0.752825         2.079654
 H         3.958509         2.141132         0.891608
 H         2.461674         0.282839        -2.282519
 H         2.387429        -2.392932        -0.908932
 H         3.698348        -2.150291         0.240227
