19
Iteration:  1262
 C         0.227156         0.626666        -0.371724
 C         1.421312         0.013796         0.136694
 C         1.943124        -1.371996         0.721114
 C         2.587055        -0.584104         1.819033
 C         2.530184         0.619389         0.864055
 O         2.922498         1.940467         1.171190
 C         2.737826        -0.050732        -0.537339
 O         3.363415         0.857454        -1.517576
 C         2.772933        -1.562418        -0.536479
 H        -0.124991         1.442071         0.209290
 H         0.409682         0.952722        -1.357058
 H        -0.650599        -0.150398        -0.405416
 H         1.167878        -2.152355         1.114220
 H         1.803455        -0.322373         2.494196
 H         3.459847        -0.831327         2.422686
 H         3.154662         2.323589         0.257278
 H         2.878755         0.943730        -2.409217
 H         2.208361        -1.901635        -1.412332
 H         3.813460        -2.039370        -0.405450
