19
Iteration:  4488
 C         0.008297         0.719035        -0.234668
 C         1.348895         0.228101         0.188181
 C         1.822618        -1.135500         1.055437
 C         2.639232        -0.180975         1.959240
 C         2.787683         0.755067         0.713286
 O         3.423048         1.896247         0.433583
 C         2.638777        -0.231600        -0.537398
 O         3.121325         0.253123        -1.746808
 C         2.655045        -1.671355        -0.085457
 H        -0.234020         0.531870        -1.273535
 H        -0.814867         0.270058         0.401628
 H        -0.054357         1.793369        -0.091226
 H         1.122176        -1.834268         1.593795
 H         1.961989         0.106933         2.747945
 H         3.479863        -0.851712         2.446334
 H         2.873057         2.662013         0.739725
 H         3.817074         0.821464        -1.581695
 H         2.020496        -2.392108        -0.655120
 H         3.648204        -1.987879         0.048984
