19
Iteration:  1564
 C         0.052436         0.664203        -0.264328
 C         1.351018        -0.089309         0.095450
 C         1.856854        -1.333084         0.765633
 C         2.572729        -0.478153         1.832779
 C         2.573505         0.622989         0.767312
 O         2.985048         1.879410         1.036041
 C         2.753171         0.021405        -0.568643
 O         3.381441         0.778589        -1.548516
 C         2.883315        -1.540817        -0.378121
 H         0.403768         1.145142        -1.170819
 H        -0.971532         0.180568        -0.415266
 H        -0.141225         1.399804         0.491801
 H         1.169318        -2.191515         1.040184
 H         1.766621        -0.175775         2.600293
 H         3.550284        -0.705642         2.219840
 H         3.867028         1.992735         0.541087
 H         3.086454         0.552474        -2.474756
 H         2.334288        -1.963466        -1.182436
 H         3.880411        -1.853423        -0.349080
