19
Iteration:  2726charge 0 multiplicity 1
 C         0.030348         0.678621        -0.047124
 C         1.424834         0.072918         0.126300
 C         1.698003        -1.134554         0.894627
 C         2.634973        -0.285689         1.862676
 C         2.703287         0.696671         0.614489
 O         3.157439         2.000225         0.719026
 C         2.793535        -0.207388        -0.586206
 O         3.293270         0.444779        -1.757418
 C         2.717712        -1.653707        -0.087275
 H        -0.487052         0.294200        -0.942185
 H        -0.521845         0.483608         0.902594
 H         0.190687         1.834667        -0.179935
 H         1.155292        -1.883719         1.572436
 H         1.887102         0.209520         2.569497
 H         3.441018        -0.788598         2.412315
 H         3.733056         2.242694        -0.097131
 H         2.644641         0.201157        -2.380307
 H         2.362306        -2.455614        -0.877844
 H         3.684017        -1.946554         0.384846
