19
Iteration:   958charge 0 multiplicity 1
 C         0.148616         0.600360        -0.370061
 C         1.384873        -0.025475         0.099865
 C         1.889245        -1.308224         0.658322
 C         2.597331        -0.633077         1.796944
 C         2.482429         0.552307         0.875508
 O         2.808949         1.881353         1.201928
 C         2.784107         0.020884        -0.571631
 O         3.440074         0.917221        -1.438750
 C         2.872407        -1.465783        -0.557206
 H        -0.699452         0.038760        -0.833779
 H        -0.282540         1.243220         0.362620
 H         0.471800         1.331248        -1.146963
 H         1.311742        -2.150303         1.069221
 H         2.059575        -0.479180         2.721631
 H         3.554540        -0.955538         2.061206
 H         3.516019         2.021126         0.651375
 H         3.335782         0.585699        -2.285826
 H         2.373840        -1.940405        -1.377057
 H         3.786683        -2.040809        -0.503742
