19
Iteration:  4917charge 0 multiplicity 1
 C         0.095078         0.821494        -0.230620
 C         1.404641         0.151238         0.218905
 C         1.818787        -0.996832         1.298372
 C         2.811610        -0.001389         2.001109
 C         2.796954         0.749746         0.577962
 O         3.360941         2.005375         0.366682
 C         2.595839        -0.395445        -0.542838
 O         2.912229         0.086811        -1.844798
 C         2.617784        -1.693872         0.036656
 H        -0.736413         0.239431         0.179427
 H         0.059560         1.823744         0.214115
 H         0.075873         0.772864        -1.305920
 H         0.969772        -1.456300         1.916399
 H         2.351987         0.697010         2.626782
 H         3.774563        -0.166860         2.499254
 H         4.171610         1.792356        -0.164972
 H         3.201708        -0.734504        -2.421442
 H         1.868581        -2.429095        -0.332371
 H         3.525686        -2.324466         0.197069
