19
Iteration:  2941
 C         0.054642         0.738490        -0.199437
 C         1.378082         0.086070         0.174550
 C         1.766786        -1.211875         0.943372
 C         2.771936        -0.394604         1.821156
 C         2.742285         0.633346         0.701398
 O         2.997577         1.962230         0.668358
 C         2.714604        -0.084451        -0.495384
 O         3.351101         0.490933        -1.599397
 C         2.680213        -1.603661        -0.197458
 H        -0.118121         1.657465         0.414635
 H         0.049724         0.914065        -1.299441
 H        -0.774758         0.105539         0.097784
 H         0.962126        -1.949686         1.351802
 H         2.282718         0.127560         2.661459
 H         3.741285        -0.794456         2.202519
 H         3.794312         2.117914         0.009581
 H         2.726495         0.272986        -2.313785
 H         2.146628        -2.056489        -1.000738
 H         3.636991        -2.290695        -0.114544
