19
Iteration:  3313charge 0 multiplicity 1
 C         0.032741         0.575626        -0.269479
 C         1.407113         0.072126         0.089917
 C         1.721596        -1.215723         0.827171
 C         2.599004        -0.360650         1.898551
 C         2.643077         0.650806         0.744281
 O         3.213317         1.902274         0.959923
 C         2.753792        -0.089130        -0.540233
 O         3.311680         0.585107        -1.653846
 C         2.762331        -1.500605        -0.312794
 H        -0.314969         1.369474         0.384883
 H        -0.182262         0.860814        -1.297678
 H        -0.533424        -0.294855        -0.082522
 H         0.910446        -1.950731         1.176717
 H         2.103673         0.067045         2.769880
 H         3.593013        -0.823622         2.298344
 H         3.578536         2.359185         0.094709
 H         2.551328         0.468795        -2.318053
 H         2.505783        -2.149158        -1.197373
 H         3.687381        -1.978096         0.119867
