19
Iteration:  3644
 C         0.041705         0.718185        -0.284587
 C         1.382220         0.138299         0.127160
 C         1.784295        -1.233494         0.907160
 C         2.692743        -0.393028         1.931934
 C         2.593471         0.625313         0.762103
 O         3.030540         1.967014         0.952094
 C         2.815739        -0.171663        -0.571669
 O         3.394658         0.561949        -1.733527
 C         2.747337        -1.648036        -0.316954
 H        -0.256567         1.532306         0.456054
 H         0.087316         1.264453        -1.308437
 H        -0.798003        -0.000021        -0.339639
 H         1.084475        -1.944495         1.273210
 H         2.171153        -0.084187         2.879366
 H         3.610385        -0.704266         2.381082
 H         3.589877         2.147517         0.191847
 H         2.691094         0.706173        -2.373552
 H         2.060966        -2.117250        -1.054583
 H         3.600254        -2.377067        -0.170430
