19
Iteration:  3900charge 0 multiplicity 1
 C        -0.062126         0.712108        -0.154488
 C         1.311386         0.091381         0.072732
 C         1.736981        -1.133933         0.978993
 C         2.713301        -0.345476         1.879628
 C         2.689488         0.670168         0.731918
 O         3.086005         1.977865         0.866389
 C         2.752501        -0.146433        -0.612034
 O         3.475153         0.382239        -1.716869
 C         2.709748        -1.615403        -0.276924
 H        -0.034531         1.274097        -1.117540
 H        -0.776750        -0.082451        -0.309231
 H        -0.326344         1.507565         0.671871
 H         1.036545        -1.836945         1.436823
 H         2.403476        -0.031090         2.855037
 H         3.683921        -0.657787         2.077886
 H         3.386797         2.361994        -0.043064
 H         2.970281         0.726746        -2.542740
 H         2.140085        -2.322895        -0.844221
 H         3.656801        -2.181243         0.075412
