19
Iteration:  2902charge 0 multiplicity 1
 C         0.015942         0.632857        -0.148656
 C         1.379315         0.120403         0.053346
 C         1.823923        -1.175266         0.916381
 C         2.639143        -0.201256         1.902608
 C         2.677816         0.688756         0.774178
 O         3.259693         1.880457         0.820096
 C         2.725682        -0.145756        -0.590685
 O         3.237788         0.505584        -1.703546
 C         2.738451        -1.666713        -0.203808
 H        -0.550955         1.208058         0.596486
 H        -0.005519         1.289825        -1.025608
 H        -0.501370        -0.247072        -0.603566
 H         1.017263        -1.806707         1.313205
 H         2.018532         0.042792         2.807597
 H         3.593407        -0.589312         2.257004
 H         3.376068         2.242815        -0.033889
 H         2.628315         0.248518        -2.528220
 H         2.122852        -2.186439        -0.997691
 H         3.677018        -2.101799         0.002802
