19
Iteration:  3830
 C         0.124898         0.717123        -0.386059
 C         1.393989         0.117661         0.270028
 C         1.778107        -1.208070         0.925341
 C         2.588561        -0.368232         1.882788
 C         2.683538         0.618047         0.781373
 O         3.229802         1.937909         0.745495
 C         2.670085        -0.185305        -0.542552
 O         3.121947         0.646400        -1.627525
 C         2.775811        -1.617936        -0.219396
 H        -0.071333         0.306548        -1.386504
 H        -0.742768         0.328596         0.226352
 H         0.159949         1.803747        -0.426009
 H         1.172311        -2.043837         1.348030
 H         2.089368         0.031968         2.777771
 H         3.413213        -0.997993         2.317136
 H         3.927280         1.946346         0.068991
 H         3.295273         0.117354        -2.348035
 H         2.481654        -2.416626        -0.929409
 H         3.788577        -1.980857         0.020021
