19
Iteration:  1295charge 0 multiplicity 1
 C         0.086949         0.680425        -0.383515
 C         1.387918         0.047365        -0.011322
 C         1.810629        -1.263230         0.695872
 C         2.659224        -0.645489         1.818731
 C         2.623789         0.554330         0.856045
 O         2.895611         1.844829         1.139123
 C         2.820478        -0.013692        -0.544149
 O         3.284686         0.845374        -1.545092
 C         2.919635        -1.517249        -0.332018
 H        -0.318375         1.165847         0.477931
 H         0.176517         1.404476        -1.151746
 H        -0.626253        -0.171232        -0.769887
 H         0.922544        -1.984571         0.976583
 H         1.996523        -0.252383         2.595217
 H         3.606867        -1.106847         2.244588
 H         3.718082         2.172127         0.618458
 H         2.529377         0.806829        -2.325122
 H         2.801850        -1.962575        -1.322937
 H         3.928957        -1.906733         0.059798
