19
Iteration:  1658charge 0 multiplicity 1
 C         0.102642         0.662235        -0.411310
 C         1.361802         0.079178         0.149233
 C         1.812875        -1.372055         0.813742
 C         2.708890        -0.470237         1.870114
 C         2.621134         0.585715         0.758748
 O         2.981667         1.942128         1.007604
 C         2.686724        -0.111831        -0.549121
 O         3.303377         0.769266        -1.491251
 C         2.831522        -1.559106        -0.397046
 H        -0.055275         1.615728         0.111111
 H         0.152447         0.922264        -1.455639
 H        -0.708402        -0.060417        -0.311225
 H         1.070939        -2.111376         1.140192
 H         2.148503        -0.133779         2.673618
 H         3.710639        -0.730521         2.188328
 H         3.774507         2.087199         0.468364
 H         2.856561         0.554090        -2.348355
 H         2.395220        -2.098797        -1.282672
 H         3.909311        -1.875495        -0.153145
