19
Iteration:   553
 C         0.172243         0.685884        -0.470398
 C         1.437430         0.077546         0.034583
 C         1.835443        -1.395653         0.515713
 C         2.618547        -0.808578         1.763460
 C         2.536288         0.479061         0.909208
 O         2.710722         1.868659         1.392475
 C         2.796678         0.072072        -0.542882
 O         3.321468         1.000940        -1.391638
 C         3.023121        -1.450974        -0.526029
 H        -0.723449         0.491609         0.098424
 H         0.358845         1.708295        -0.679628
 H         0.012371         0.220464        -1.531212
 H         1.221352        -2.321175         0.313296
 H         2.065303        -0.771825         2.708736
 H         3.606597        -1.224813         1.964616
 H         3.498898         2.210966         0.939003
 H         2.964780         0.979748        -2.279004
 H         2.813195        -1.985109        -1.454676
 H         3.944955        -1.808992        -0.177096
