19
Iteration:  4375
 C         0.095463         0.856696        -0.238172
 C         1.368832         0.112578         0.152736
 C         1.784076        -1.098059         1.012104
 C         2.770118        -0.215974         1.884139
 C         2.683724         0.694915         0.634304
 O         3.242936         2.000929         0.732210
 C         2.667466        -0.298335        -0.626273
 O         3.048738         0.293375        -1.783316
 C         2.744847        -1.758068        -0.012173
 H        -0.704288         0.643560         0.475982
 H         0.263839         1.990657        -0.180661
 H        -0.219745         0.452767        -1.199230
 H         0.943216        -1.665734         1.397925
 H         2.114097         0.143316         2.709778
 H         3.773060        -0.826677         2.093590
 H         3.089016         2.506174        -0.125328
 H         4.097598         0.390783        -1.667962
 H         2.179227        -2.529638        -0.547912
 H         3.745021        -2.033675         0.262284
