19
Iteration:  4281
 C        -0.005409         0.745539        -0.330996
 C         1.328726         0.169094         0.200170
 C         1.763245        -1.137845         1.067429
 C         2.800564        -0.288359         1.851721
 C         2.703544         0.708380         0.673005
 O         3.261736         1.935004         0.693398
 C         2.619036        -0.239597        -0.577020
 O         3.271764         0.445245        -1.697899
 C         2.693957        -1.689293        -0.036096
 H        -0.220885         1.819646        -0.169693
 H        -0.272822         0.539818        -1.398564
 H        -0.682874         0.148959         0.305213
 H         0.968561        -1.794227         1.510768
 H         2.426281         0.115378         2.771624
 H         3.765071        -0.690560         2.017600
 H         3.358301         2.194325        -0.224294
 H         2.830030         0.091052        -2.430463
 H         2.134107        -2.360772        -0.744644
 H         3.649311        -2.048464         0.346036
