19
Iteration:  2977charge 0 multiplicity 1
 C         0.133539         0.828625        -0.213403
 C         1.384773         0.077428         0.119020
 C         1.865432        -1.313356         0.974488
 C         2.743016        -0.394954         1.857271
 C         2.674510         0.648191         0.751104
 O         2.942592         2.068576         0.772217
 C         2.638164        -0.177184        -0.633594
 O         3.305169         0.476353        -1.697021
 C         2.759787        -1.686270        -0.187838
 H         0.428653         1.826574         0.025392
 H        -0.270013         0.928540        -1.201554
 H        -0.704067         0.577782         0.465489
 H         1.014479        -1.953306         1.404637
 H         2.066655         0.142848         2.651303
 H         3.694324        -0.813403         2.274567
 H         3.930697         2.330625         0.587432
 H         2.938280         0.212146        -2.555635
 H         2.082819        -2.277875        -0.857744
 H         3.786994        -2.171502         0.083416
