19
Iteration:    92charge 0 multiplicity 1
 C         0.143423         0.561901        -0.529939
 C         1.442985         0.034593        -0.075231
 C         1.806993        -1.390656         0.376284
 C         2.542146        -0.924294         1.662226
 C         2.448589         0.471917         0.965202
 O         2.708584         1.642904         1.595849
 C         2.896085         0.169633        -0.542058
 O         3.439832         1.307673        -1.224997
 C         3.089057        -1.391560        -0.651172
 H        -0.061064         0.257185        -1.529561
 H        -0.601888         0.001704         0.069380
 H        -0.067817         1.677850        -0.491125
 H         1.044739        -2.142601         0.332834
 H         2.197654        -1.008407         2.644648
 H         3.542352        -1.345567         1.712755
 H         2.811467         2.282368         0.841213
 H         2.790166         1.633252        -1.967894
 H         2.813842        -1.821967        -1.628603
 H         4.049903        -1.796887        -0.254626
