19
Iteration:  1064charge 0 multiplicity 1
 C         0.186052         0.607995        -0.392841
 C         1.439882         0.033497        -0.001807
 C         1.818699        -1.375583         0.665162
 C         2.566457        -0.617502         1.820688
 C         2.559844         0.609869         0.860881
 O         2.888631         1.875926         1.212513
 C         2.807462         0.020897        -0.575531
 O         3.332679         0.933545        -1.519356
 C         2.915948        -1.542892        -0.412843
 H         0.004039         0.904137        -1.399688
 H        -0.574365        -0.119601        -0.102110
 H        -0.056003         1.515673         0.273826
 H         1.026845        -2.099601         0.804349
 H         1.851488        -0.536113         2.590669
 H         3.506147        -1.127969         2.229471
 H         3.614667         2.110957         0.537034
 H         2.623517         0.949130        -2.210936
 H         2.362466        -2.028978        -1.225721
 H         3.896385        -2.030658        -0.047677
