19
Iteration:  1578
 C         0.033820         0.703457        -0.247218
 C         1.283947         0.002886         0.000534
 C         1.872276        -1.363383         0.775769
 C         2.578241        -0.466977         1.849324
 C         2.552170         0.597055         0.816830
 O         3.008932         1.910490         1.104868
 C         2.717030        -0.056937        -0.616801
 O         3.418998         0.748968        -1.618179
 C         2.936099        -1.501340        -0.380749
 H         0.083206         1.513585        -0.988949
 H        -0.629734        -0.060607        -0.626517
 H        -0.400498         1.265438         0.687222
 H         1.336045        -2.242866         1.118722
 H         2.074460        -0.192859         2.748221
 H         3.478158        -0.925628         2.155603
 H         3.553919         2.157155         0.393594
 H         2.937966         0.515939        -2.395389
 H         2.570709        -2.180203        -1.262555
 H         3.793433        -2.058556         0.108480
