19
Iteration:  1464
 C         0.129928         0.653225        -0.340489
 C         1.393507         0.064239         0.041455
 C         1.821968        -1.372239         0.747958
 C         2.550196        -0.548215         1.822002
 C         2.615286         0.600372         0.813134
 O         2.989701         1.893611         1.169880
 C         2.764654        -0.021251        -0.565671
 O         3.310047         0.771463        -1.628781
 C         2.912183        -1.476852        -0.328415
 H        -0.393412        -0.040837        -1.051863
 H        -0.480897         0.844982         0.620080
 H         0.292798         1.543520        -0.892812
 H         1.042525        -2.088483         0.950126
 H         1.936033        -0.348939         2.743774
 H         3.504242        -0.913885         2.166135
 H         3.278912         2.229240         0.294518
 H         2.780375         0.664141        -2.405778
 H         2.420244        -2.039542        -1.178053
 H         3.899826        -1.963433        -0.079450
