19
Iteration:   876charge 0 multiplicity 1
 C         0.033250         0.660627        -0.375308
 C         1.399446        -0.016005        -0.014452
 C         1.930644        -1.363858         0.603026
 C         2.421599        -0.675597         1.851314
 C         2.657053         0.493630         0.927477
 O         2.902585         1.897194         1.179051
 C         2.801176         0.007648        -0.541005
 O         3.347677         0.976468        -1.447911
 C         3.042538        -1.502076        -0.510949
 H        -0.696057        -0.009248         0.155949
 H         0.169212         1.757560        -0.043477
 H        -0.208636         0.703399        -1.438407
 H         1.099738        -1.986994         0.991832
 H         1.436142        -0.400865         2.379888
 H         3.368360        -1.043383         2.449780
 H         3.443307         2.323527         0.555019
 H         2.754865         0.827116        -2.215726
 H         2.528941        -2.054189        -1.348890
 H         4.002687        -2.027002        -0.358366
