19
Iteration:  4260
 C         0.095903         0.704388        -0.264032
 C         1.351430         0.122157         0.169126
 C         1.799646        -1.148670         1.029094
 C         2.726182        -0.226935         1.948255
 C         2.653539         0.750034         0.707624
 O         3.242442         1.969650         0.663954
 C         2.625570        -0.200434        -0.529848
 O         3.227430         0.293645        -1.686614
 C         2.704280        -1.661862        -0.192288
 H         0.325431         1.797455        -0.381225
 H        -0.204511         0.440334        -1.264380
 H        -0.796576         0.670809         0.402095
 H         1.130487        -1.884733         1.544061
 H         2.146518         0.002383         2.852562
 H         3.626977        -0.747960         2.202008
 H         3.569448         2.195975        -0.235992
 H         2.587130         0.783070        -2.253157
 H         2.223218        -2.336398        -0.888057
 H         3.726748        -1.892518         0.058933
