19
Iteration:  3201charge 0 multiplicity 1
 C         0.206101         0.811197        -0.223935
 C         1.427096         0.070668         0.084422
 C         1.825253        -1.298330         0.883665
 C         2.662948        -0.333745         1.836826
 C         2.725045         0.554013         0.749807
 O         2.927541         1.965427         0.882392
 C         2.681914        -0.128144        -0.579908
 O         3.223066         0.526455        -1.624957
 C         2.840595        -1.609149        -0.241933
 H        -0.731065         0.332556        -0.120009
 H         0.159838         1.754213         0.309297
 H         0.080389         1.148046        -1.235792
 H         1.131541        -2.047290         1.352783
 H         2.070140        -0.024269         2.676879
 H         3.605781        -0.674801         2.386288
 H         3.337712         2.221184         0.053641
 H         2.799517         0.207688        -2.411228
 H         2.257652        -2.153649        -1.119197
 H         3.776957        -2.120543        -0.024144
