19
Iteration:   613charge 0 multiplicity 1
 C         0.049663         0.558040        -0.335855
 C         1.458260         0.123468        -0.044846
 C         1.823762        -1.369317         0.543174
 C         2.425625        -0.793151         1.753509
 C         2.603587         0.539179         0.947959
 O         2.827367         1.825414         1.257848
 C         2.890106         0.018589        -0.558794
 O         3.414983         1.103130        -1.350877
 C         3.030327        -1.490053        -0.547257
 H        -0.709789        -0.237209        -0.574083
 H        -0.427859         1.127387         0.548517
 H         0.096335         1.167053        -1.189842
 H         1.093584        -2.158579         0.501477
 H         1.694307        -0.453285         2.557750
 H         3.344680        -1.198619         2.304833
 H         3.132210         2.181979         0.412328
 H         3.042559         0.882012        -2.329565
 H         2.701283        -1.958461        -1.534654
 H         4.108999        -1.923624        -0.188947
