19
Iteration:   270charge 0 multiplicity 1
 C         0.083461         0.599597        -0.566377
 C         1.360571        -0.028049        -0.052008
 C         1.972649        -1.444276         0.461985
 C         2.490472        -0.817252         1.704545
 C         2.566475         0.493492         0.887916
 O         2.797984         1.719590         1.457049
 C         2.814574         0.107964        -0.547289
 O         3.361228         1.226243        -1.161963
 C         3.055817        -1.355267        -0.599840
 H        -0.833497         0.073198        -0.170796
 H         0.095203         1.638816        -0.205217
 H        -0.091732         0.579838        -1.660624
 H         1.319807        -2.460158         0.520684
 H         1.668478        -0.637854         2.442145
 H         3.412780        -1.301002         2.049258
 H         3.503138         2.044070         0.933874
 H         3.029386         1.179836        -2.102785
 H         2.603156        -1.756062        -1.498846
 H         3.942277        -1.842468        -0.372417
