19
Iteration:  2643
 C         0.118391         0.697267        -0.325886
 C         1.433022         0.154113         0.151588
 C         1.782318        -1.142276         0.995784
 C         2.803036        -0.245559         1.901694
 C         2.723332         0.649894         0.739303
 O         3.118751         1.966675         0.732398
 C         2.741668        -0.246157        -0.560449
 O         3.119474         0.503881        -1.696147
 C         2.681481        -1.711078        -0.087329
 H         0.014280         0.642824        -1.416823
 H        -0.869216         0.309555         0.037320
 H         0.048554         1.699724         0.014947
 H         0.956545        -1.697869         1.491515
 H         2.457113        -0.069431         2.909051
 H         3.795687        -0.719919         2.182694
 H         3.511334         2.152123        -0.207472
 H         2.623257         0.164810        -2.538247
 H         2.045357        -2.176420        -0.774975
 H         3.536036        -2.392535         0.037971
