19
Iteration:  1375
 C         0.046899         0.634048        -0.313029
 C         1.407739         0.053596         0.051226
 C         1.827627        -1.272046         0.707766
 C         2.612596        -0.628582         1.766881
 C         2.627886         0.591315         0.917078
 O         2.893114         2.000445         1.063119
 C         2.769411        -0.040348        -0.585251
 O         3.472533         0.831359        -1.477478
 C         2.808137        -1.647871        -0.403115
 H        -0.805071        -0.016515         0.036336
 H        -0.071091         1.634223         0.223972
 H        -0.165242         0.825427        -1.345571
 H         1.192317        -2.045659         1.114288
 H         2.107814        -0.609323         2.691493
 H         3.634014        -0.965448         1.854640
 H         3.057869         2.353094         0.117689
 H         2.912818         0.778226        -2.326270
 H         2.548070        -2.269414        -1.344646
 H         3.864895        -1.951986         0.014689
