19
Iteration:  2049charge 0 multiplicity 1
 C         0.080647         0.715930        -0.232927
 C         1.332925         0.043429         0.117197
 C         1.760765        -1.247783         0.821955
 C         2.647742        -0.415373         1.867798
 C         2.663299         0.612842         0.738505
 O         3.042475         1.958656         0.877418
 C         2.755564        -0.098623        -0.556053
 O         3.252717         0.603749        -1.680047
 C         2.901354        -1.604343        -0.203971
 H        -0.726531         0.706741         0.562073
 H         0.329529         1.833374        -0.113333
 H        -0.217138         0.504441        -1.254607
 H         1.129676        -2.095753         1.204260
 H         2.036374         0.040072         2.742453
 H         3.608398        -0.924591         2.130789
 H         3.646297         2.169073         0.216719
 H         2.746336         0.248456        -2.518498
 H         2.470701        -2.345579        -0.927790
 H         3.870625        -1.892408         0.260795
