19
Iteration:   947charge 0 multiplicity 1
 C         0.102146         0.688901        -0.395866
 C         1.348227         0.031514         0.084059
 C         1.897295        -1.426403         0.635145
 C         2.646942        -0.644486         1.760989
 C         2.551209         0.589297         0.910724
 O         2.791696         1.898769         1.192219
 C         2.778859         0.036921        -0.491964
 O         3.419238         0.855253        -1.427038
 C         2.911593        -1.463226        -0.541706
 H        -0.626985        -0.111532        -0.634365
 H        -0.288131         1.335822         0.354274
 H         0.328429         1.260380        -1.331339
 H         1.243814        -2.291422         0.855685
 H         1.911968        -0.678715         2.538552
 H         3.574772        -1.063584         2.020269
 H         3.458576         2.305425         0.579420
 H         3.191633         0.445761        -2.340333
 H         2.454235        -1.809945        -1.447568
 H         3.863611        -1.883492        -0.260895
