19
Iteration:  1391charge 0 multiplicity 1
 C         0.006863         0.713536        -0.317918
 C         1.327333         0.131219         0.059919
 C         1.839947        -1.397428         0.711778
 C         2.713351        -0.583831         1.821819
 C         2.527588         0.606190         0.821304
 O         2.897699         1.886982         1.024296
 C         2.802533        -0.057051        -0.542342
 O         3.434656         0.758460        -1.445724
 C         2.917289        -1.489911        -0.408965
 H        -0.734648        -0.062818        -0.161505
 H        -0.260026         1.590109         0.262828
 H        -0.031323         0.829618        -1.445360
 H         1.055697        -2.168342         0.874102
 H         2.199273        -0.366686         2.817656
 H         3.698980        -1.020179         2.151529
 H         3.268761         2.266329         0.252798
 H         3.019454         0.906137        -2.223893
 H         2.383429        -1.989043        -1.207727
 H         3.792839        -2.066118        -0.219745
