19
Iteration:   568charge 0 multiplicity 1
 C         0.088365         0.755366        -0.549567
 C         1.376558         0.005595        -0.010744
 C         1.925778        -1.458961         0.545714
 C         2.581034        -0.736119         1.788475
 C         2.508709         0.510426         0.969864
 O         2.770108         1.755132         1.380582
 C         2.826170         0.071415        -0.539632
 O         3.383355         1.040475        -1.422504
 C         3.037105        -1.439531        -0.541769
 H        -0.790150         0.361998         0.077799
 H         0.071803         1.817159        -0.120039
 H        -0.214139         0.645335        -1.536215
 H         1.312971        -2.154202         0.955199
 H         1.902670        -0.792396         2.647944
 H         3.636669        -1.130146         2.129490
 H         3.208870         2.203078         0.669756
 H         2.790781         0.917780        -2.309874
 H         2.699556        -1.919010        -1.539929
 H         4.124788        -1.857812        -0.138980
