19
Iteration:  4276
 C         0.011277         0.762938        -0.311808
 C         1.337893         0.146175         0.195205
 C         1.775231        -1.157546         1.033768
 C         2.769126        -0.283935         1.815376
 C         2.678481         0.655409         0.741560
 O         3.283103         1.988218         0.697649
 C         2.587134        -0.248908        -0.623807
 O         3.268041         0.399138        -1.656657
 C         2.711288        -1.644281        -0.044350
 H        -0.085729         1.847094        -0.258383
 H        -0.234486         0.430416        -1.370963
 H        -0.692118         0.167793         0.276083
 H         0.986284        -1.760586         1.422579
 H         2.518054         0.277195         2.767426
 H         3.868345        -0.525102         2.115887
 H         3.299052         2.120356        -0.307100
 H         2.609611         0.230499        -2.482756
 H         2.141206        -2.326944        -0.727618
 H         3.660813        -2.104798         0.329965
