19
Iteration:  1243charge 0 multiplicity 1
 C         0.067171         0.642160        -0.431234
 C         1.361581         0.047962         0.123987
 C         1.833840        -1.385406         0.675833
 C         2.649348        -0.560537         1.889822
 C         2.634298         0.564503         0.898893
 O         2.922512         1.900243         1.106391
 C         2.796605        -0.027704        -0.475897
 O         3.357200         0.838310        -1.468304
 C         2.866939        -1.481507        -0.507884
 H        -0.034638         1.548051         0.206626
 H         0.092652         0.821381        -1.532787
 H        -0.739094        -0.057028        -0.398551
 H         1.158756        -2.230947         0.963317
 H         1.997455        -0.460451         2.753385
 H         3.644743        -0.921096         2.043508
 H         3.096239         2.307279         0.174695
 H         2.986564         0.593168        -2.396294
 H         2.256220        -1.680568        -1.449277
 H         3.876914        -2.010101        -0.541374
