19
Iteration:   506
 C         0.095033         0.616202        -0.525443
 C         1.479082         0.058930         0.017747
 C         1.989811        -1.393467         0.577796
 C         2.508746        -0.689640         1.804504
 C         2.486011         0.520617         0.950624
 O         2.751157         1.795688         1.407151
 C         2.816670         0.031008        -0.598508
 O         3.402178         1.044999        -1.349334
 C         2.993112        -1.449385        -0.694575
 H        -0.314241         1.272990         0.228497
 H         0.179340         1.012119        -1.550262
 H        -0.705880        -0.215579        -0.609974
 H         1.178359        -2.289032         0.800386
 H         1.843595        -0.648718         2.699756
 H         3.454302        -1.035885         2.089602
 H         3.599038         1.986424         1.674230
 H         2.955493         1.211367        -2.302484
 H         2.361319        -1.890510        -1.417717
 H         3.899645        -1.861046        -0.808639
