19
Iteration:  1474charge 0 multiplicity 1
 C         0.065995         0.714792        -0.396859
 C         1.380531         0.072355         0.085270
 C         1.860603        -1.431689         0.764301
 C         2.596859        -0.494658         1.895600
 C         2.573863         0.607449         0.906582
 O         3.003247         1.920254         1.175471
 C         2.712441        -0.032138        -0.605561
 O         3.368678         0.746770        -1.654174
 C         2.905380        -1.571419        -0.428351
 H        -0.412213         0.096644        -1.186226
 H        -0.710525         0.758443         0.416371
 H         0.145829         1.708927        -0.703506
 H         1.291774        -2.272315         1.115902
 H         1.876574        -0.355115         2.718083
 H         3.560275        -0.919022         2.185193
 H         3.286083         2.457384         0.368319
 H         2.739148         0.838301        -2.438203
 H         2.559893        -2.184791        -1.221520
 H         3.894981        -1.860520        -0.142903
