19
Iteration:  2007charge 0 multiplicity 1
 C         0.034379         0.697860        -0.250577
 C         1.408396         0.054880         0.130635
 C         1.857190        -1.242444         0.867114
 C         2.578393        -0.387729         1.914923
 C         2.704296         0.650593         0.803966
 O         3.047777         1.927149         0.908154
 C         2.761288        -0.092964        -0.585638
 O         3.286071         0.589964        -1.664552
 C         2.813418        -1.565972        -0.333584
 H        -0.351462         1.412947         0.515908
 H         0.100971         1.284888        -1.147318
 H        -0.618360        -0.221252        -0.354562
 H         1.064369        -2.016445         1.028465
 H         1.912360        -0.010200         2.747652
 H         3.410788        -0.845939         2.360406
 H         3.622191         2.235698         0.120180
 H         2.927185         0.105035        -2.472299
 H         2.239921        -2.217805        -1.114749
 H         3.793200        -2.052857        -0.047137
