19
Iteration:  4875charge 0 multiplicity 1
 C         0.108941         0.796877        -0.139617
 C         1.399117         0.170596         0.236463
 C         1.742259        -0.994750         1.266611
 C         2.856790        -0.087060         1.932488
 C         2.784969         0.729214         0.638039
 O         3.333320         2.032672         0.287266
 C         2.592758        -0.306884        -0.589964
 O         2.980749         0.043572        -1.820780
 C         2.536268        -1.703864         0.110490
 H        -0.485290         1.303377         0.707948
 H         0.473937         1.514081        -0.839163
 H        -0.431448         0.032058        -0.715879
 H         0.801924        -1.550903         1.599161
 H         2.474899         0.493551         2.727480
 H         3.674781        -0.657623         2.265986
 H         3.845981         1.988920        -0.498487
 H         3.978760         0.232266        -1.715090
 H         2.061977        -2.417389        -0.568648
 H         3.643251        -2.103924         0.192797
