19
Iteration:  2363
 C         0.058295         0.634585        -0.315918
 C         1.396015         0.098393         0.184757
 C         1.752859        -1.214923         1.041980
 C         2.712601        -0.355491         1.866032
 C         2.698490         0.644884         0.735284
 O         3.123035         1.990501         0.694508
 C         2.801024        -0.125726        -0.478201
 O         3.245572         0.584775        -1.628975
 C         2.701125        -1.604663        -0.226897
 H        -0.222422         1.494359         0.241816
 H        -0.031211         0.806353        -1.362094
 H        -0.749052        -0.138878        -0.222545
 H         0.983201        -2.068290         1.374112
 H         2.380664         0.038019         2.810941
 H         3.728622        -0.830520         2.149485
 H         3.588074         2.133584        -0.220958
 H         2.757745         0.111928        -2.408459
 H         1.997446        -2.109619        -0.940551
 H         3.556686        -2.243228        -0.059217
