19
Iteration:  4071
 C         0.012065         0.620865        -0.343445
 C         1.336467         0.099130         0.155721
 C         1.771844        -1.119718         0.975323
 C         2.672522        -0.341623         1.972588
 C         2.653837         0.702123         0.739707
 O         3.315856         1.904396         0.720986
 C         2.675746        -0.083785        -0.560452
 O         3.239641         0.517905        -1.666827
 C         2.743157        -1.630862        -0.186632
 H        -0.784326         0.209090         0.242870
 H        -0.141604         1.711787        -0.017265
 H        -0.210852         0.499655        -1.361121
 H         0.865086        -1.612971         1.387684
 H         2.295880        -0.001786         2.939267
 H         3.612409        -0.830582         2.239659
 H         3.827229         1.985727        -0.134668
 H         2.833359        -0.059535        -2.474895
 H         2.164706        -2.234052        -0.916327
 H         3.597113        -2.060066         0.284057
