19
Iteration:  1763charge 0 multiplicity 1
 C         0.077972         0.668541        -0.240899
 C         1.361266         0.092634         0.109872
 C         1.752706        -1.339538         0.723707
 C         2.656686        -0.540711         1.816441
 C         2.650379         0.635032         0.785075
 O         2.993475         1.983782         0.995096
 C         2.702103        -0.058661        -0.558596
 O         3.342402         0.625804        -1.586223
 C         2.882361        -1.497187        -0.280727
 H        -0.704626        -0.033605        -0.034006
 H        -0.075763         1.651402         0.227325
 H        -0.129073         0.689271        -1.316931
 H         0.958414        -1.947477         1.038546
 H         2.174297         0.086941         2.752733
 H         3.638070        -1.087869         2.099449
 H         3.476081         2.331788         0.102638
 H         3.069485         0.283171        -2.562768
 H         2.727623        -2.137660        -1.184928
 H         3.814887        -1.793293         0.178539
