19
Iteration:  2212
 C         0.045536         0.701508        -0.334614
 C         1.345661         0.078467         0.148917
 C         1.760541        -1.217474         0.937207
 C         2.720792        -0.366586         1.897972
 C         2.683225         0.634503         0.820829
 O         3.054436         1.951569         0.790246
 C         2.795404        -0.149960        -0.507192
 O         3.284215         0.546909        -1.664085
 C         2.782807        -1.575388        -0.265776
 H        -0.222288         0.852762        -1.370321
 H        -0.765578        -0.043350        -0.050960
 H        -0.054296         1.694664         0.152452
 H         1.169917        -2.014552         1.439637
 H         2.344345         0.001868         2.887226
 H         3.748972        -0.849672         2.058295
 H         3.510215         2.041582        -0.003509
 H         2.603646         0.591297        -2.467721
 H         2.267137        -2.103738        -1.031314
 H         3.701625        -2.091889         0.093525
