19
Iteration:   117
 C         0.059612         0.633703        -0.514766
 C         1.361752        -0.008150        -0.056462
 C         1.950810        -1.470442         0.355700
 C         2.535972        -0.856657         1.641153
 C         2.519780         0.485786         0.942005
 O         2.679518         1.669315         1.534489
 C         2.810705         0.189009        -0.485885
 O         3.462047         1.194631        -1.173147
 C         3.110989        -1.349805        -0.695974
 H         0.054183         1.012413        -1.630106
 H        -0.755599        -0.142141        -0.428259
 H        -0.253232         1.524331         0.121405
 H         1.299918        -2.501949         0.421529
 H         1.894793        -0.882502         2.587921
 H         3.480749        -1.163066         2.058155
 H         3.290573         2.093056         0.990127
 H         2.978648         1.615055        -1.889582
 H         2.669213        -1.702740        -1.694454
 H         4.203102        -1.835585        -0.423912
