19
Iteration:  3884charge 0 multiplicity 1
 C        -0.008500         0.685201        -0.203324
 C         1.339578         0.124576         0.118706
 C         1.811955        -1.219443         0.925214
 C         2.704997        -0.264708         1.789074
 C         2.700166         0.661221         0.700654
 O         3.158869         1.965992         0.875279
 C         2.629503        -0.167420        -0.672183
 O         3.425414         0.432293        -1.589156
 C         2.669685        -1.625060        -0.207884
 H        -0.180971         1.019501        -1.227895
 H        -0.795885        -0.076624         0.040956
 H        -0.188060         1.463740         0.461519
 H         1.105864        -1.963240         1.355946
 H         2.060517         0.252732         2.560192
 H         3.623850        -0.762943         2.316968
 H         3.474271         2.447838         0.094639
 H         2.919742         0.332476        -2.335283
 H         2.164060        -2.106007        -1.088941
 H         3.636211        -2.002186        -0.065627
