19
Iteration:   818
 C        -0.022585         0.591239        -0.458944
 C         1.355482         0.070021         0.033181
 C         1.922184        -1.440010         0.672861
 C         2.602840        -0.603082         1.779261
 C         2.543904         0.548424         0.827879
 O         2.903137         1.908520         1.292334
 C         2.800425        -0.006345        -0.584395
 O         3.489111         0.964962        -1.303468
 C         2.861223        -1.514561        -0.640607
 H        -0.684621         1.043243         0.363821
 H        -0.031560         1.385366        -1.248866
 H        -0.442320        -0.376747        -0.746134
 H         1.317144        -2.247556         0.982905
 H         2.055656        -0.566940         2.797276
 H         3.639005        -0.861228         2.282673
 H         3.293975         2.402074         0.447498
 H         3.057009         0.888295        -2.223416
 H         2.172924        -2.040856        -1.414025
 H         3.915704        -2.025187        -0.500814
