19
Iteration:  2705charge 0 multiplicity 1
 C        -0.012325         0.723113        -0.150294
 C         1.446223         0.138682         0.096838
 C         1.799763        -1.170165         1.024265
 C         2.670744        -0.194973         1.916774
 C         2.683868         0.687027         0.749078
 O         3.138813         1.955825         0.652931
 C         2.629058        -0.249126        -0.615495
 O         3.329387         0.415407        -1.671130
 C         2.752709        -1.677157        -0.179730
 H        -0.373503         0.580235        -1.194162
 H        -0.684777         0.321269         0.638038
 H        -0.021257         1.875058         0.140193
 H         1.027085        -1.957533         1.380230
 H         2.180713        -0.050259         2.917604
 H         3.715222        -0.622635         2.173153
 H         3.620230         2.102291        -0.238804
 H         2.681137         0.551088        -2.498502
 H         2.260643        -2.373165        -1.027366
 H         3.795177        -2.142752        -0.008646
