19
Iteration:  1352
 C         0.116942         0.618096        -0.276494
 C         1.444285         0.053229         0.067912
 C         1.806874        -1.339866         0.717852
 C         2.559919        -0.496643         1.866256
 C         2.620823         0.539500         0.779966
 O         2.892315         1.890123         1.103739
 C         2.850194        -0.001160        -0.587029
 O         3.384724         0.841890        -1.497617
 C         2.817808        -1.537050        -0.436228
 H        -0.679836         0.069321         0.262554
 H        -0.022655         1.697879        -0.075781
 H        -0.156244         0.460514        -1.336574
 H         1.184489        -2.253670         0.799009
 H         1.952906        -0.104993         2.627282
 H         3.484501        -0.965938         2.200591
 H         3.414225         2.282554         0.376173
 H         3.047578         0.422990        -2.358273
 H         2.252667        -1.899891        -1.354380
 H         3.816434        -2.131776        -0.318022
