19
Iteration:  1941
 C         0.059365         0.640422        -0.340635
 C         1.266842        -0.005546         0.221378
 C         1.863437        -1.295756         0.889782
 C         2.687684        -0.378358         1.850049
 C         2.598881         0.625703         0.752365
 O         3.105504         1.946958         0.858897
 C         2.668542        -0.083642        -0.566894
 O         3.369934         0.682860        -1.538556
 C         2.770453        -1.551507        -0.304775
 H         0.300473         1.719519        -0.602336
 H        -0.235479         0.216904        -1.288150
 H        -0.870040         0.784366         0.302807
 H         1.183059        -2.180252         1.205524
 H         2.155289        -0.209836         2.883255
 H         3.700213        -0.868566         2.084089
 H         3.637121         1.940026         0.061864
 H         2.895463         0.715317        -2.471919
 H         2.213018        -2.229470        -1.090791
 H         3.760084        -2.061696        -0.122947
