19
Iteration:  3837
 C         0.122171         0.703274        -0.346507
 C         1.333108         0.112412         0.188046
 C         1.768446        -1.224079         0.986458
 C         2.576943        -0.420794         1.913956
 C         2.755311         0.591875         0.763116
 O         3.230131         1.961334         0.721539
 C         2.739002        -0.120884        -0.588437
 O         3.120118         0.639213        -1.606432
 C         2.777300        -1.596961        -0.186288
 H         0.002553         0.338260        -1.387472
 H        -0.745859         0.328252         0.198138
 H        -0.087638         1.758798        -0.303954
 H         1.052630        -1.956868         1.251159
 H         1.874228        -0.054673         2.708562
 H         3.500922        -1.026753         2.296315
 H         3.929260         1.867138        -0.022523
 H         3.320342        -0.018637        -2.353509
 H         2.232019        -2.175299        -1.012336
 H         3.776152        -1.883760         0.115163
