19
Iteration:   145charge 0 multiplicity 1
 C         0.167618         0.588008        -0.405654
 C         1.459018        -0.000523        -0.023811
 C         1.961425        -1.481723         0.308966
 C         2.414195        -0.954124         1.761746
 C         2.482747         0.446421         1.024001
 O         2.661823         1.734736         1.389543
 C         2.835308         0.228545        -0.481921
 O         3.445614         1.236185        -1.231345
 C         3.054328        -1.289224        -0.737897
 H         0.351610         1.385859        -1.034778
 H        -0.554469        -0.072306        -0.846451
 H        -0.456510         0.862218         0.480556
 H         1.393724        -2.320129         0.254749
 H         1.539077        -1.003444         2.361677
 H         3.292856        -1.220143         2.455177
 H         3.469426         1.983686         1.018200
 H         3.414234         1.090421        -2.240341
 H         2.729578        -1.634836        -1.684231
 H         3.926425        -1.726985        -0.521259
