19
Iteration:  3122charge 0 multiplicity 1
 C         0.039415         0.620036        -0.329302
 C         1.355899         0.075262         0.077960
 C         1.810400        -1.231680         0.984113
 C         2.729728        -0.408148         1.991989
 C         2.596941         0.678945         0.764242
 O         3.204833         1.999846         0.844399
 C         2.721293        -0.095937        -0.604603
 O         3.300643         0.616022        -1.678520
 C         2.667081        -1.636845        -0.239833
 H        -0.357817         0.281328        -1.277017
 H        -0.747394         0.221346         0.249254
 H        -0.101663         1.714854        -0.374477
 H         1.226492        -1.923758         1.453013
 H         2.059521        -0.128407         2.819826
 H         3.754267        -0.823283         2.077247
 H         3.827497         2.083448         0.022961
 H         2.746348         0.539773        -2.393670
 H         2.156378        -2.404798        -0.925665
 H         3.632593        -2.112357         0.054277
