19
Iteration:  1160charge 0 multiplicity 1
 C         0.165445         0.596054        -0.248417
 C         1.401125         0.010415         0.077960
 C         1.765001        -1.338357         0.650055
 C         2.451820        -0.649791         1.855415
 C         2.584346         0.573877         0.853906
 O         2.929124         1.937681         1.152060
 C         2.794866        -0.019454        -0.559383
 O         3.428864         0.851901        -1.544116
 C         2.961081        -1.478223        -0.513821
 H         0.182434         1.522367        -0.854785
 H        -0.368947        -0.083961        -0.961442
 H        -0.365215         0.832940         0.672554
 H         1.012522        -2.050256         0.813280
 H         1.806080        -0.349803         2.712396
 H         3.315664        -1.134954         2.315954
 H         3.149752         2.328107         0.221507
 H         2.777842         1.095184        -2.349054
 H         2.627212        -2.044211        -1.394209
 H         3.981924        -1.765090        -0.185681
