19
Iteration:   955charge 0 multiplicity 1
 C         0.131255         0.619472        -0.381738
 C         1.376682        -0.008482         0.102227
 C         1.905058        -1.321848         0.661035
 C         2.598386        -0.622752         1.757623
 C         2.487159         0.540821         0.894458
 O         2.799975         1.889105         1.202482
 C         2.773866         0.007806        -0.540170
 O         3.442585         0.905297        -1.432067
 C         2.889915        -1.459276        -0.568768
 H        -0.671955         0.043860        -0.725155
 H        -0.269468         1.260355         0.383339
 H         0.516933         1.287944        -1.202616
 H         1.345280        -2.155983         1.071626
 H         2.002385        -0.584941         2.627262
 H         3.612157        -1.081702         2.063078
 H         3.579059         2.138245         0.571682
 H         3.237155         0.430491        -2.355334
 H         2.374794        -1.825628        -1.401128
 H         3.764760        -1.968349        -0.344643
