19
Iteration:  3460
 C         0.041541         0.665550        -0.128569
 C         1.413564         0.184807         0.095310
 C         1.770536        -1.238290         0.769556
 C         2.507642        -0.410334         1.846498
 C         2.648306         0.609159         0.795271
 O         3.039477         1.933730         0.895633
 C         2.714467        -0.074486        -0.583796
 O         3.344169         0.551357        -1.654133
 C         2.880922        -1.572146        -0.314865
 H         0.009212         1.213261        -1.061961
 H        -0.563045        -0.212256        -0.173659
 H        -0.323024         1.395930         0.615467
 H         1.014826        -1.986347         0.901393
 H         1.884265        -0.213251         2.758393
 H         3.420777        -0.781549         2.299481
 H         4.006058         2.028721         0.739473
 H         3.491336         0.113461        -2.524716
 H         2.606209        -2.120910        -1.198148
 H         3.913526        -1.850850         0.117740
