19
Iteration:   215charge 0 multiplicity 1
 C         0.013719         0.650297        -0.403639
 C         1.371261        -0.026549        -0.016615
 C         1.979268        -1.490351         0.329965
 C         2.506523        -0.851989         1.750219
 C         2.550732         0.455159         0.952073
 O         2.624628         1.751421         1.475851
 C         2.834705         0.187232        -0.459453
 O         3.578124         1.071288        -1.307684
 C         3.076968        -1.255327        -0.710162
 H        -0.397327         1.347669         0.370604
 H         0.051689         1.214539        -1.353680
 H        -0.660049        -0.152150        -0.746579
 H         1.233119        -2.471776         0.419151
 H         1.662057        -0.861895         2.519109
 H         3.306305        -1.329885         2.306155
 H         3.113433         2.189752         0.790018
 H         2.927535         1.302118        -1.938397
 H         2.817080        -1.424993        -1.767302
 H         4.033206        -1.678495        -0.477768
