19
Iteration:   236charge 0 multiplicity 1
 C         0.189107         0.552968        -0.406206
 C         1.497466         0.032925         0.000742
 C         1.892731        -1.394843         0.396342
 C         2.449973        -0.903893         1.669461
 C         2.472096         0.462730         0.970190
 O         2.648031         1.798664         1.450554
 C         2.873276         0.113917        -0.560803
 O         3.479198         1.197103        -1.259201
 C         3.040987        -1.368182        -0.657431
 H        -0.365683         0.800964         0.502166
 H         0.196321         1.459407        -1.024631
 H        -0.316438        -0.198254        -1.093729
 H         1.059516        -2.311134         0.356078
 H         1.844909        -0.956070         2.630113
 H         3.367010        -1.427182         2.027029
 H         3.107942         2.269247         0.756961
 H         2.820266         1.424934        -2.049382
 H         2.683189        -1.763134        -1.619182
 H         3.906209        -1.851212        -0.373563
