19
Iteration:  1850charge 0 multiplicity 1
 C         0.017268         0.757358        -0.371960
 C         1.408896         0.109327         0.142109
 C         1.863901        -1.274688         0.814904
 C         2.674519        -0.493912         1.895194
 C         2.584199         0.590917         0.862318
 O         2.956887         1.976296         0.984040
 C         2.810475        -0.099687        -0.539653
 O         3.318655         0.557876        -1.687533
 C         2.837545        -1.541154        -0.329919
 H        -0.431539         0.397259        -1.336450
 H        -0.639426         0.427781         0.534568
 H         0.064322         1.800251        -0.417899
 H         1.198746        -1.929951         1.243037
 H         2.124224        -0.252118         2.875098
 H         3.649880        -0.928842         2.006515
 H         3.579971         2.080414         0.275399
 H         2.534355         0.639963        -2.250865
 H         2.539249        -2.198559        -1.201068
 H         3.936899        -1.845688        -0.051630
