19
Iteration:   147
 C         0.168551         0.599105        -0.393491
 C         1.468468        -0.001407        -0.031309
 C         1.965461        -1.461526         0.307202
 C         2.415303        -0.949613         1.755271
 C         2.492370         0.435585         1.028313
 O         2.652053         1.727817         1.382713
 C         2.840271         0.225297        -0.474558
 O         3.438394         1.245042        -1.232692
 C         3.054129        -1.297127        -0.716438
 H         0.316401         1.424267        -1.025860
 H        -0.529597        -0.107470        -0.886040
 H        -0.524453         0.770350         0.492237
 H         1.277610        -2.401592         0.229202
 H         1.501363        -0.952515         2.353894
 H         3.295854        -1.251241         2.366942
 H         3.532174         2.064611         1.004869
 H         3.445191         1.059577        -2.269111
 H         2.732950        -1.622199        -1.718591
 H         3.971698        -1.824322        -0.526683
