19
Iteration:   126charge 0 multiplicity 1
 C         0.096073         0.647072        -0.473340
 C         1.364223        -0.064114        -0.001327
 C         1.989817        -1.492586         0.388600
 C         2.458173        -0.868751         1.699676
 C         2.454053         0.430664         0.958970
 O         2.700467         1.743816         1.501066
 C         2.805995         0.151868        -0.528694
 O         3.485182         1.202683        -1.186035
 C         3.120173        -1.284571        -0.745650
 H         0.286071         1.054844        -1.477313
 H        -0.728064        -0.109694        -0.595536
 H        -0.409521         1.366289         0.243463
 H         1.314249        -2.473363         0.359091
 H         1.645211        -0.825938         2.449939
 H         3.384507        -1.342738         1.962032
 H         3.418627         2.122001         1.087578
 H         3.041624         1.402494        -2.023312
 H         2.717429        -1.584355        -1.762363
 H         4.220696        -1.665452        -0.735766
