19
Iteration:   460charge 0 multiplicity 1
 C         0.036020         0.599367        -0.380123
 C         1.463159         0.083328        -0.056040
 C         1.879199        -1.334545         0.449599
 C         2.480295        -0.887442         1.799394
 C         2.482264         0.483943         0.945054
 O         2.744591         1.802812         1.346048
 C         2.845516         0.094440        -0.515130
 O         3.483373         1.081049        -1.378559
 C         3.093234        -1.366634        -0.577649
 H        -0.030879         1.741153        -0.287832
 H        -0.254915         0.195484        -1.390662
 H        -0.672530         0.235119         0.280279
 H         1.241860        -2.186818         0.606410
 H         1.763253        -0.906720         2.587298
 H         3.372170        -1.391136         2.157809
 H         3.200880         2.132485         0.581450
 H         2.875691         0.878289        -2.228705
 H         2.880537        -1.830553        -1.475712
 H         3.948162        -1.750619        -0.177478
