19
Iteration:  1707charge 0 multiplicity 1
 C         0.129280         0.623228        -0.321453
 C         1.418725         0.047117         0.124248
 C         1.875477        -1.280085         0.778467
 C         2.551824        -0.431605         1.849590
 C         2.702955         0.591615         0.826395
 O         2.992000         1.940448         1.018084
 C         2.715340        -0.086445        -0.542997
 O         3.282945         0.697884        -1.574609
 C         2.827407        -1.553144        -0.413541
 H        -0.559122         0.841410         0.490793
 H         0.287905         1.615166        -0.879832
 H        -0.267298        -0.112179        -1.046014
 H         1.329101        -2.089938         1.271399
 H         1.779754        -0.054410         2.697159
 H         3.445215        -0.920684         2.404110
 H         3.573491         2.175108         0.251120
 H         2.729244         0.823374        -2.363330
 H         2.181808        -2.016329        -1.156284
 H         3.777629        -2.086146        -0.272351
