19
Iteration:  3554
 C         0.148213         0.745790        -0.385599
 C         1.423546         0.123216         0.147486
 C         1.784587        -1.239213         0.820417
 C         2.678917        -0.440277         1.925882
 C         2.693808         0.604492         0.839050
 O         3.010162         1.954765         0.856292
 C         2.687210        -0.143792        -0.580049
 O         3.223037         0.649681        -1.600044
 C         2.807389        -1.704936        -0.263717
 H         0.355290         1.872057        -0.346014
 H        -0.080119         0.270138        -1.404876
 H        -0.656124         0.597468         0.354206
 H         1.051579        -1.904648         1.207650
 H         2.054146        -0.288710         2.779458
 H         3.608486        -0.663597         2.415503
 H         3.764234         2.227598         0.375163
 H         2.642592         0.473168        -2.314059
 H         2.415710        -2.171777        -1.212622
 H         3.752836        -2.110742         0.098186
