19
Iteration:    60
 C         0.123486         0.568891        -0.562490
 C         1.379110        -0.069158        -0.002495
 C         1.989500        -1.482063         0.348549
 C         2.419081        -0.885820         1.736038
 C         2.506208         0.454654         0.986152
 O         2.771123         1.677202         1.598145
 C         2.892496         0.220544        -0.437503
 O         3.349368         1.226711        -1.205440
 C         3.068894        -1.196918        -0.832717
 H        -0.454094        -0.275651        -1.061097
 H        -0.609042         0.836120         0.283527
 H         0.389504         1.358128        -1.357838
 H         1.390967        -2.434554         0.261789
 H         1.481698        -0.770560         2.266567
 H         3.197431        -1.315345         2.344637
 H         3.367021         2.262861         1.024912
 H         3.347022         1.011868        -2.131111
 H         2.546663        -1.438435        -1.819151
 H         4.192282        -1.693349        -0.790214
