19
Iteration:  1409charge 0 multiplicity 1
 C         0.063254         0.662812        -0.339054
 C         1.326354        -0.040272         0.110274
 C         1.859426        -1.362416         0.744525
 C         2.602085        -0.488486         1.866272
 C         2.590773         0.569043         0.827917
 O         2.934044         1.870620         1.030745
 C         2.718385         0.008496        -0.560283
 O         3.436819         0.807158        -1.489770
 C         2.860666        -1.469636        -0.490996
 H        -0.896801         0.057452        -0.286452
 H        -0.060502         1.559802         0.393205
 H         0.244922         1.040915        -1.314351
 H         1.341734        -2.186967         1.146499
 H         1.927822        -0.356637         2.730316
 H         3.534598        -0.871241         2.263310
 H         3.671708         1.899710         0.467957
 H         2.999871         0.702531        -2.257986
 H         2.403146        -2.105751        -1.414485
 H         3.972680        -1.819507        -0.186152
