19
Iteration:  1082charge 0 multiplicity 1
 C         0.103737         0.640284        -0.387070
 C         1.434091         0.084408         0.081557
 C         1.783116        -1.346567         0.650247
 C         2.574083        -0.692819         1.905124
 C         2.640052         0.546911         0.967525
 O         2.821635         1.910312         1.111353
 C         2.921805        -0.004337        -0.499538
 O         3.298628         0.904872        -1.525387
 C         2.930401        -1.499436        -0.542402
 H         0.377590         0.989091        -1.440754
 H        -0.822753        -0.005648        -0.221321
 H        -0.280577         1.548251         0.044070
 H         1.151349        -2.190955         0.868341
 H         1.892406        -0.545665         2.814891
 H         3.524521        -1.131864         1.996382
 H         3.609122         2.218337         0.571293
 H         3.071676         0.628265        -2.436176
 H         2.405676        -1.920214        -1.442948
 H         3.822664        -2.049907        -0.126132
