19
Iteration:  4478
 C         0.006775         0.773880        -0.261944
 C         1.348836         0.135988         0.219679
 C         1.815259        -1.113364         1.110115
 C         2.705559        -0.215035         1.938618
 C         2.658417         0.678812         0.698995
 O         3.424704         1.910716         0.448417
 C         2.576141        -0.207691        -0.557864
 O         3.157155         0.222031        -1.751072
 C         2.701996        -1.610513        -0.100232
 H        -0.264952         0.429075        -1.285367
 H        -0.856341         0.534491         0.379554
 H         0.040411         1.884578        -0.212136
 H         1.124451        -1.913115         1.471232
 H         2.131042         0.337867         2.687420
 H         3.717860        -0.497465         2.407660
 H         3.021500         2.612270         0.976591
 H         3.692480         0.916066        -1.497752
 H         2.100822        -2.247046        -0.798002
 H         3.560745        -2.188174         0.213945
