19
Iteration:  1336
 C         0.021164         0.660631        -0.331609
 C         1.417858         0.024067         0.047147
 C         1.913491        -1.355070         0.734929
 C         2.536796        -0.535661         1.878092
 C         2.628585         0.576774         0.855002
 O         2.936707         1.876620         1.115774
 C         2.759034        -0.000265        -0.535061
 O         3.356059         0.795075        -1.568510
 C         2.919833        -1.490529        -0.506738
 H        -0.639960         0.445574         0.500650
 H         0.164857         1.750246        -0.401843
 H        -0.336048         0.469073        -1.386293
 H         1.220990        -2.074540         1.207262
 H         1.530189        -0.467436         2.491330
 H         3.442204        -0.906532         2.537545
 H         3.681918         2.047365         0.593695
 H         3.097981         0.600433        -2.395315
 H         2.286816        -1.942215        -1.226161
 H         3.834820        -1.909955        -0.277543
