19
Iteration:  1463charge 0 multiplicity 1
 C         0.134897         0.647518        -0.333870
 C         1.394516         0.060982         0.040472
 C         1.817926        -1.354100         0.746895
 C         2.543338        -0.558093         1.814002
 C         2.616508         0.599706         0.802836
 O         2.988240         1.890531         1.165808
 C         2.777702        -0.018013        -0.566926
 O         3.300919         0.772680        -1.623213
 C         2.911290        -1.476819        -0.322180
 H        -0.409270        -0.045819        -1.025005
 H        -0.451247         0.843861         0.603489
 H         0.315870         1.506656        -0.900164
 H         1.044740        -2.063256         0.919298
 H         1.964666        -0.333710         2.723607
 H         3.514459        -0.919266         2.193744
 H         3.273948         2.197918         0.319304
 H         2.796634         0.635971        -2.355969
 H         2.446879        -1.986141        -1.148561
 H         3.851285        -1.942550        -0.082586
