19
Iteration:  4263
 C         0.082210         0.701779        -0.257512
 C         1.364014         0.129503         0.148313
 C         1.786707        -1.156069         1.018831
 C         2.746508        -0.226190         1.935719
 C         2.638341         0.721035         0.713100
 O         3.262617         1.989782         0.672376
 C         2.611214        -0.208158        -0.551910
 O         3.218780         0.297733        -1.661371
 C         2.701276        -1.645742        -0.178235
 H         0.269500         1.816808        -0.324082
 H        -0.096919         0.409512        -1.260364
 H        -0.855484         0.677862         0.328609
 H         1.144236        -1.873362         1.529756
 H         2.111559         0.098073         2.835064
 H         3.727326        -0.790229         2.101239
 H         3.478913         2.175592        -0.244276
 H         2.685392         0.717972        -2.287540
 H         2.264729        -2.381123        -0.790790
 H         3.735825        -1.938786         0.087044
