19
Iteration:  2759
 C         0.082240         0.762632        -0.125364
 C         1.351745         0.124839         0.139618
 C         1.871659        -1.146559         0.954219
 C         2.646550        -0.255847         1.945858
 C         2.624853         0.676013         0.726380
 O         3.131822         1.959749         0.751984
 C         2.707835        -0.221944        -0.639144
 O         3.256651         0.367321        -1.723335
 C         2.764825        -1.600564        -0.233410
 H        -0.744515         0.109280        -0.447268
 H        -0.317084         1.360843         0.718010
 H         0.207414         1.640248        -0.896918
 H         1.339461        -2.081642         1.370540
 H         1.820027        -0.021192         2.679057
 H         3.416649        -0.667372         2.556309
 H         3.721749         2.224069        -0.030621
 H         2.950460        -0.199737        -2.560042
 H         2.321118        -2.400172        -0.939839
 H         3.801614        -1.946940        -0.037912
