19
Iteration:  3438
 C        -0.019157         0.747453        -0.259100
 C         1.362854         0.047953         0.028939
 C         1.858698        -1.258620         0.890795
 C         2.600028        -0.482037         1.941455
 C         2.610067         0.620106         0.771626
 O         3.059320         2.024427         0.979435
 C         2.729187        -0.087282        -0.630638
 O         3.377405         0.609890        -1.723368
 C         2.834534        -1.646377        -0.297107
 H         0.035101         1.533836        -1.009518
 H        -0.784795         0.028558        -0.460948
 H        -0.286519         1.360920         0.623331
 H         1.256329        -2.110814         1.077234
 H         1.847984        -0.210633         2.764947
 H         3.413313        -0.848099         2.533113
 H         4.010473         2.039632         0.685356
 H         2.912074         0.311519        -2.573773
 H         2.308960        -2.304542        -0.974211
 H         3.913815        -1.924904        -0.024888
