19
Iteration:  4200
 C         0.142317         0.871579        -0.187811
 C         1.396091         0.113128         0.097253
 C         1.743395        -1.176298         1.013159
 C         2.734856        -0.280384         1.912165
 C         2.704189         0.706210         0.653350
 O         3.020208         2.022281         0.716976
 C         2.730285        -0.234580        -0.584097
 O         3.238427         0.304666        -1.767034
 C         2.732296        -1.699562        -0.103508
 H         0.235762         1.111627        -1.261383
 H        -0.726106         0.131433         0.030259
 H        -0.020391         1.811226         0.364952
 H         1.040322        -1.916615         1.368423
 H         2.237672         0.216779         2.747406
 H         3.729725        -0.752587         2.137271
 H         3.941866         2.148565         0.901484
 H         2.499130         0.371078        -2.314851
 H         2.324155        -2.466067        -0.913922
 H         3.722266        -2.177602         0.215470
