19
Iteration:  2317
 C        -0.028863         0.682251        -0.160867
 C         1.354995         0.056668         0.088853
 C         1.832847        -1.196536         0.934324
 C         2.615957        -0.275935         1.932148
 C         2.592687         0.638664         0.723756
 O         3.168498         1.934788         0.845931
 C         2.709790        -0.086015        -0.571896
 O         3.341942         0.427399        -1.828489
 C         2.845878        -1.589129        -0.159678
 H        -0.025149         1.725294         0.099079
 H        -0.352357         0.576154        -1.156965
 H        -0.857299         0.201909         0.298219
 H         1.265489        -2.073153         1.411464
 H         1.923389         0.129655         2.723172
 H         3.637515        -0.513517         2.417087
 H         3.849633         2.149564         0.077023
 H         2.617110         0.618424        -2.452500
 H         2.304385        -1.976590        -1.057768
 H         3.724490        -2.083670         0.010167
