19
Iteration:  4455
 C         0.077664         0.809026        -0.298256
 C         1.347525         0.088914         0.187997
 C         1.757811        -1.093729         1.115179
 C         2.807735        -0.152054         1.842612
 C         2.661798         0.685365         0.671243
 O         3.250047         1.888571         0.501819
 C         2.630827        -0.219723        -0.514988
 O         3.200616         0.240759        -1.773197
 C         2.657286        -1.671196        -0.031699
 H        -0.547304         0.390591        -1.072127
 H        -0.597948         1.149756         0.581054
 H         0.415037         1.798511        -0.609244
 H         1.171689        -1.880851         1.672352
 H         2.499037         0.154717         2.819642
 H         3.771188        -0.815143         2.052304
 H         3.139475         2.297997         1.415374
 H         3.241830         1.313400        -1.713405
 H         2.143684        -2.438995        -0.693991
 H         3.592614        -2.101140         0.291743
