19
Iteration:  1677
 C         0.099205         0.660769        -0.372991
 C         1.348508         0.036021         0.106399
 C         1.789967        -1.252023         0.779378
 C         2.691083        -0.618920         1.823065
 C         2.578562         0.616930         0.879086
 O         3.001776         1.949770         0.911541
 C         2.764122        -0.040433        -0.527479
 O         3.269622         0.794573        -1.564233
 C         2.865010        -1.550099        -0.243284
 H        -0.263804         1.457483         0.292937
 H         0.294681         1.020872        -1.367425
 H        -0.669358        -0.171934        -0.731792
 H         1.235600        -2.030932         1.194751
 H         2.247521        -0.572326         2.821009
 H         3.655346        -1.098321         1.770766
 H         3.843624         1.971671         0.530472
 H         2.850394         0.703540        -2.393418
 H         2.413035        -2.143574        -1.077535
 H         3.734479        -1.947543         0.173957
