19
Iteration:  4461
 C         0.087282         0.803893        -0.269314
 C         1.256113         0.072436         0.171104
 C         1.730008        -1.152678         1.118691
 C         2.820739        -0.115149         1.886335
 C         2.664322         0.704536         0.675006
 O         3.294580         1.848678         0.500449
 C         2.661149        -0.214260        -0.524266
 O         3.199929         0.247949        -1.776649
 C         2.646672        -1.638201        -0.059607
 H        -0.444673         0.313441        -1.128229
 H        -0.742857         0.941037         0.426748
 H         0.403929         1.861712        -0.444699
 H         1.095484        -1.712583         1.778503
 H         2.426339         0.190638         2.895793
 H         3.778446        -0.623140         1.988380
 H         3.183894         2.375279         1.315093
 H         3.380142         1.148221        -1.752573
 H         2.192017        -2.372615        -0.694143
 H         3.746696        -1.900537         0.127205
