19
Iteration:  3346
 C         0.073648         0.697277        -0.448280
 C         1.361979         0.083127         0.119116
 C         1.794906        -1.262789         0.902776
 C         2.718816        -0.429762         1.951846
 C         2.702098         0.639661         0.799351
 O         3.157381         1.970295         0.949675
 C         2.665287        -0.191963        -0.565382
 O         3.192659         0.690365        -1.602176
 C         2.781523        -1.651373        -0.330582
 H        -0.241294         1.674505        -0.102679
 H         0.003519         0.689886        -1.531018
 H        -0.767572         0.166340        -0.144952
 H         1.040880        -2.032009         1.269802
 H         2.168698         0.041808         2.792790
 H         3.747624        -0.839720         2.329546
 H         3.565397         2.359550         0.198637
 H         2.969510         0.328666        -2.403284
 H         2.258596        -2.320797        -1.065355
 H         3.803054        -1.931456         0.049881
