19
Iteration:  1810charge 0 multiplicity 1
 C         0.132632         0.690679        -0.276098
 C         1.413526         0.068094         0.114134
 C         1.818655        -1.341960         0.886197
 C         2.638807        -0.383500         1.897237
 C         2.711508         0.601819         0.775221
 O         2.899832         1.937273         0.871718
 C         2.766055        -0.137041        -0.584407
 O         3.323698         0.761051        -1.520897
 C         2.776884        -1.645885        -0.424353
 H        -0.570291        -0.080844        -0.657232
 H        -0.250095         1.191505         0.559807
 H         0.152217         1.431576        -1.178338
 H         1.153137        -2.179812         1.221400
 H         1.845421        -0.243626         2.708574
 H         3.667824        -0.673487         2.319427
 H         3.826146         2.261061         0.645772
 H         2.969923         0.585254        -2.435245
 H         2.177807        -2.233132        -1.129185
 H         3.680160        -2.138603        -0.226806
