19
Iteration:   222charge 0 multiplicity 1
 C         0.070982         0.601948        -0.413415
 C         1.402388         0.013869        -0.014281
 C         1.916880        -1.469470         0.324221
 C         2.490699        -0.895860         1.753898
 C         2.570821         0.476581         0.994198
 O         2.621899         1.770992         1.463426
 C         2.853885         0.199559        -0.484516
 O         3.532763         1.082317        -1.295636
 C         3.062910        -1.298015        -0.686564
 H        -0.422933         1.129200         0.352448
 H         0.257177         1.353917        -1.195494
 H        -0.711277        -0.183867        -0.748035
 H         1.350830        -2.396723         0.328184
 H         1.576633        -0.895927         2.334740
 H         3.493871        -1.296980         2.180289
 H         3.092274         2.267404         0.663351
 H         3.010647         1.430447        -1.957179
 H         2.702256        -1.608471        -1.682000
 H         4.079226        -1.674874        -0.520215
