19
Iteration:   396charge 0 multiplicity 1
 C         0.119434         0.660658        -0.367061
 C         1.400787         0.067491         0.002406
 C         1.862267        -1.443698         0.422139
 C         2.529958        -0.860503         1.711355
 C         2.429693         0.490124         0.922846
 O         2.685375         1.795290         1.315415
 C         2.832089         0.118497        -0.548189
 O         3.466192         1.133115        -1.267601
 C         3.102043        -1.436255        -0.574145
 H         0.119728         1.133075        -1.372758
 H        -0.552796        -0.205379        -0.359496
 H        -0.345985         1.401240         0.356691
 H         1.189427        -2.313402         0.537554
 H         1.988727        -0.884296         2.655077
 H         3.482471        -1.304437         1.920501
 H         3.340978         2.198644         0.715592
 H         3.249377         0.987884        -2.265127
 H         3.000737        -1.973197        -1.536430
 H         4.104978        -1.723172        -0.132781
