19
Iteration:  1471
 C         0.077949         0.695123        -0.376775
 C         1.391659         0.071332         0.066974
 C         1.845202        -1.440396         0.758429
 C         2.577729        -0.491794         1.883491
 C         2.590222         0.602985         0.890575
 O         3.002541         1.917165         1.170406
 C         2.709862        -0.029339        -0.584920
 O         3.353147         0.757555        -1.661561
 C         2.916317        -1.542383        -0.402604
 H        -0.371278         0.056620        -1.135356
 H        -0.587457         0.798968         0.421494
 H         0.154649         1.731860        -0.779046
 H         1.185705        -2.240358         1.100812
 H         1.889057        -0.388388         2.680369
 H         3.597252        -0.957849         2.125798
 H         3.262789         2.381607         0.412960
 H         2.822448         0.801485        -2.394583
 H         2.511380        -2.151246        -1.152476
 H         3.866934        -1.896868        -0.139844
