19
Iteration:  3574charge 0 multiplicity 1
 C         0.211486         0.717671        -0.398500
 C         1.444422         0.012093         0.149181
 C         1.807613        -1.257395         0.979521
 C         2.565021        -0.383128         1.861527
 C         2.702376         0.625616         0.739981
 O         3.046792         1.959464         0.961389
 C         2.763562        -0.111041        -0.592758
 O         3.140077         0.628371        -1.645493
 C         2.783645        -1.588885        -0.277866
 H         0.266373         1.832691        -0.118766
 H         0.072483         0.580745        -1.518443
 H        -0.696474         0.319735         0.142982
 H         1.158415        -2.163474         1.177127
 H         2.111784         0.144309         2.636003
 H         3.394828        -0.822720         2.430488
 H         4.014862         1.831339         0.679877
 H         2.731732         0.235134        -2.519902
 H         2.170530        -2.163634        -1.155712
 H         3.770637        -2.059444        -0.242822
