19
Iteration:  1643
 C         0.057765         0.688581        -0.365098
 C         1.389513         0.011107         0.104433
 C         1.933260        -1.275181         0.809944
 C         2.619055        -0.409849         1.910994
 C         2.641945         0.606048         0.867358
 O         2.981332         1.913440         1.056786
 C         2.797505        -0.060913        -0.609182
 O         3.304450         0.732597        -1.553077
 C         2.791908        -1.629938        -0.469051
 H        -0.219578         1.712536        -0.076281
 H         0.134529         0.724595        -1.462359
 H        -0.884485         0.103915        -0.028517
 H         1.403449        -2.128710         1.180970
 H         1.864136        -0.283921         2.725130
 H         3.497092        -0.793645         2.410001
 H         3.378488         2.279613         0.294674
 H         3.027842         0.614051        -2.408486
 H         2.139543        -2.153574        -1.201566
 H         3.646190        -2.250264        -0.381461
