19
Iteration:  2692charge 0 multiplicity 1
 C         0.023414         0.730649        -0.203742
 C         1.281311         0.086513         0.212341
 C         1.826426        -1.196484         1.013249
 C         2.773643        -0.260705         1.969559
 C         2.606562         0.649146         0.740022
 O         3.154744         1.960613         0.587204
 C         2.707082        -0.155861        -0.565341
 O         3.349692         0.405067        -1.658648
 C         2.699931        -1.614233        -0.254969
 H        -0.239647         0.650197        -1.276981
 H        -0.854354         0.272362         0.286607
 H         0.077340         1.861951         0.049997
 H         1.239800        -1.889813         1.692738
 H         2.186925         0.235682         2.818832
 H         3.732114        -0.631893         2.297990
 H         3.553633         1.902438        -0.248407
 H         2.738674         0.503840        -2.335690
 H         2.099219        -2.310161        -0.962079
 H         3.707498        -2.003915        -0.026424
