19
Iteration:    84
 C         0.155084         0.523907        -0.531367
 C         1.450480         0.082619        -0.019970
 C         1.848217        -1.423578         0.352353
 C         2.480507        -0.924475         1.654217
 C         2.511641         0.435555         0.998659
 O         2.717926         1.667323         1.592672
 C         2.849958         0.220720        -0.525548
 O         3.421609         1.296026        -1.226815
 C         3.096865        -1.365890        -0.682187
 H        -0.155529        -0.001708        -1.564312
 H        -0.658104         0.196527         0.204528
 H         0.272643         1.633422        -0.690679
 H         1.034227        -2.358777         0.327302
 H         1.818120        -0.967792         2.620192
 H         3.497561        -1.274280         1.767955
 H         2.843970         2.413432         0.886487
 H         2.896491         1.446270        -2.132329
 H         2.691700        -1.785171        -1.679712
 H         4.139516        -1.974139        -0.417834
