19
Iteration:  1701
 C         0.096555         0.661413        -0.365931
 C         1.420943         0.083150         0.125162
 C         1.848571        -1.339534         0.801189
 C         2.603207        -0.465904         1.913433
 C         2.679273         0.614673         0.871523
 O         2.985018         1.938276         0.976927
 C         2.747512        -0.039652        -0.536727
 O         3.265442         0.715865        -1.565549
 C         2.853643        -1.599947        -0.421831
 H        -0.470993         0.940293         0.551603
 H         0.111291         1.473726        -1.049608
 H        -0.396011        -0.147793        -1.011967
 H         1.077167        -2.083706         1.085963
 H         2.017946        -0.071792         2.644213
 H         3.460936        -0.985847         2.253667
 H         3.716060         2.181860         0.273097
 H         2.709990         0.773508        -2.458733
 H         2.289036        -2.102428        -1.253233
 H         3.809009        -2.095296        -0.154817
