19
Iteration:  1408charge 0 multiplicity 1
 C         0.057045         0.668146        -0.342987
 C         1.329553        -0.046334         0.114669
 C         1.854035        -1.358273         0.745082
 C         2.605496        -0.488373         1.867119
 C         2.592332         0.557021         0.829480
 O         2.930702         1.867036         1.028052
 C         2.717666         0.017501        -0.552060
 O         3.442338         0.802532        -1.487369
 C         2.862772        -1.475584        -0.492555
 H        -0.891551         0.061374        -0.272112
 H        -0.078593         1.560603         0.360659
 H         0.205828         1.062382        -1.312551
 H         1.317344        -2.187644         1.130868
 H         1.944075        -0.328014         2.709158
 H         3.603799        -0.820282         2.232344
 H         3.657439         1.907734         0.454869
 H         2.980001         0.702766        -2.249640
 H         2.446271        -2.046778        -1.425336
 H         3.944348        -1.796727        -0.202045
