19
Iteration:    19charge 0 multiplicity 1
 C         0.064134         0.585781        -0.561264
 C         1.398838         0.039898        -0.068622
 C         1.815186        -1.417833         0.292115
 C         2.575180        -0.970994         1.586439
 C         2.588901         0.434131         0.916331
 O         2.688468         1.658112         1.557652
 C         2.842320         0.173688        -0.517647
 O         3.332969         1.361498        -1.109815
 C         3.157214        -1.349084        -0.588281
 H        -0.864746         0.026012        -0.133726
 H        -0.160435         1.575552        -0.181418
 H         0.023289         0.528475        -1.638561
 H         1.072571        -2.366608         0.329336
 H         2.020504        -0.963121         2.626500
 H         3.563723        -1.457279         1.775819
 H         3.439420         2.080690         1.162449
 H         3.477443         1.126056        -2.021358
 H         3.060587        -1.791470        -1.597006
 H         4.038710        -1.688804        -0.072389
