19
Iteration:  3955charge 0 multiplicity 1
 C         0.180107         0.846344        -0.219364
 C         1.400094         0.051509         0.177153
 C         1.824506        -1.242783         0.989749
 C         2.613169        -0.304150         1.938778
 C         2.655568         0.621349         0.742418
 O         3.041250         1.914334         0.679622
 C         2.755257        -0.151677        -0.627813
 O         3.202928         0.572822        -1.711083
 C         2.774220        -1.709539        -0.210650
 H         0.358764         1.938722        -0.215517
 H        -0.176631         0.570217        -1.197234
 H        -0.646733         0.459833         0.492195
 H         1.232411        -2.079486         1.339417
 H         1.885891         0.186345         2.581600
 H         3.504965        -0.538614         2.486383
 H         4.024706         2.046648         0.717800
 H         2.966054         0.202541        -2.555558
 H         2.143589        -2.364942        -0.746666
 H         3.688602        -2.233871         0.199531
