19
Iteration:  2305
 C        -0.027096         0.685903        -0.169190
 C         1.298800         0.047971         0.145410
 C         1.829224        -1.215507         0.888430
 C         2.607895        -0.251145         1.881259
 C         2.711699         0.690655         0.766055
 O         3.117261         1.944587         0.834047
 C         2.828376        -0.116335        -0.572165
 O         3.299495         0.389590        -1.759413
 C         2.823722        -1.556351        -0.257078
 H         0.096054         1.765220        -0.010657
 H        -0.359742         0.588879        -1.187967
 H        -0.682950         0.353844         0.561265
 H         1.130684        -1.990887         1.305541
 H         1.775325         0.085130         2.629431
 H         3.568814        -0.640952         2.452514
 H         3.603863         2.066409         0.000499
 H         2.539000         0.546787        -2.280139
 H         2.424135        -2.329090        -0.931044
 H         3.699710        -1.904701         0.159984
