19
Iteration:  4493charge 0 multiplicity 1
 C        -0.000999         0.691308        -0.193401
 C         1.394431         0.230532         0.165710
 C         1.776424        -1.118739         1.047877
 C         2.612535        -0.198221         1.973323
 C         2.800868         0.694435         0.726590
 O         3.425526         1.919484         0.432566
 C         2.697616        -0.199629        -0.549800
 O         3.086821         0.268104        -1.750960
 C         2.618475        -1.704260        -0.077896
 H        -0.122436         0.605455        -1.366553
 H        -0.591199         0.034226         0.421332
 H        -0.104717         1.821943        -0.138923
 H         1.057122        -1.614374         1.676925
 H         1.943939         0.178533         2.805839
 H         3.449842        -0.655410         2.358410
 H         2.896962         2.701884         0.558495
 H         3.956577         0.861754        -1.591457
 H         2.075495        -2.403504        -0.696297
 H         3.780673        -1.976574         0.028540
