19
Iteration:  4597
 C         0.205677         0.878874        -0.238765
 C         1.528027         0.135057         0.158918
 C         1.842998        -1.021577         1.152309
 C         2.754817        -0.143763         1.889128
 C         2.799963         0.648518         0.678233
 O         3.150842         2.043544         0.574626
 C         2.708769        -0.343968        -0.582120
 O         2.956123         0.219799        -1.792407
 C         2.593054        -1.807035        -0.030389
 H         0.437160         1.869913        -0.007742
 H         0.176848         0.740597        -1.404300
 H        -0.688075         0.470907         0.224483
 H         1.017025        -1.609752         1.592789
 H         2.097420         0.259848         2.646045
 H         3.665132        -0.663861         2.370074
 H         2.563697         2.288000        -0.203263
 H         3.830243         0.484121        -1.781827
 H         1.864526        -2.532437        -0.531051
 H         3.450404        -2.368185         0.329636
