19
Iteration:  1275
 C         0.137618         0.650690        -0.398849
 C         1.442462         0.055522         0.100379
 C         1.839197        -1.405096         0.750568
 C         2.567881        -0.518015         1.872450
 C         2.658793         0.573079         0.876280
 O         2.885757         1.905199         1.170974
 C         2.815059        -0.018679        -0.644120
 O         3.330106         0.879518        -1.529543
 C         2.862206        -1.574451        -0.471115
 H        -0.284205         1.417879         0.270387
 H         0.244930         1.195500        -1.324546
 H        -0.644034        -0.121093        -0.480131
 H         1.172863        -2.295866         1.001715
 H         1.963322        -0.454289         2.681975
 H         3.462158        -0.954207         2.146288
 H         3.344115         2.303532         0.447663
 H         2.696323         0.889581        -2.237261
 H         2.217053        -2.128634        -1.228572
 H         3.825102        -2.241484        -0.459620
