19
Iteration:   957charge 0 multiplicity 1
 C         0.141644         0.606257        -0.373030
 C         1.383012        -0.020196         0.101900
 C         1.895638        -1.310017         0.659271
 C         2.595834        -0.629706         1.782846
 C         2.482336         0.546692         0.881982
 O         2.806269         1.884603         1.202040
 C         2.779946         0.015322        -0.560402
 O         3.441545         0.913416        -1.436179
 C         2.879582        -1.464604        -0.563377
 H        -0.687232         0.050393        -0.791279
 H        -0.270500         1.239842         0.357060
 H         0.493803         1.318939        -1.170197
 H         1.329200        -2.149553         1.078555
 H         2.052925        -0.518341         2.673282
 H         3.570689        -1.001159         2.062464
 H         3.531010         2.057526         0.627863
 H         3.298242         0.524046        -2.314081
 H         2.390018        -1.888816        -1.364402
 H         3.751116        -2.003090        -0.452793
