19
Iteration:  2832
 C         0.130885         0.681957        -0.351723
 C         1.363011         0.019648         0.239111
 C         1.854412        -1.245121         1.019238
 C         2.698282        -0.333297         1.919755
 C         2.754522         0.660644         0.771400
 O         3.173371         2.053225         0.693350
 C         2.699142        -0.163538        -0.549990
 O         3.181561         0.484638        -1.632780
 C         2.637119        -1.615382        -0.248094
 H        -0.854575         0.341046        -0.102774
 H         0.112134         1.752916        -0.110546
 H         0.182140         0.654224        -1.427234
 H         1.194427        -1.956171         1.647013
 H         2.135944         0.072613         2.833239
 H         3.740377        -0.654556         2.278573
 H         3.564634         2.214778        -0.240951
 H         2.390246         0.571829        -2.294528
 H         1.999286        -2.055478        -0.996819
 H         3.540045        -2.293907        -0.057204
