19
Iteration:  3426charge 0 multiplicity 1
 C         0.108029         0.730510        -0.257884
 C         1.346428         0.042927         0.080358
 C         1.801673        -1.349159         0.855395
 C         2.610623        -0.361912         1.885484
 C         2.646899         0.646624         0.780998
 O         3.011142         1.942201         0.985573
 C         2.747031        -0.101434        -0.583046
 O         3.342442         0.592321        -1.710169
 C         2.806548        -1.588318        -0.283045
 H         0.381047         1.421308        -1.058765
 H        -0.628770         0.098367        -0.719412
 H        -0.346022         1.163979         0.619996
 H         1.073779        -1.986215         1.253261
 H         1.958438        -0.016291         2.765157
 H         3.640263        -0.682381         2.070935
 H         3.825951         2.093751         0.566381
 H         2.761653         0.704709        -2.418433
 H         2.448903        -2.082048        -1.163100
 H         3.746612        -2.185586         0.032907
