19
Iteration:  4126charge 0 multiplicity 1
 C         0.055818         0.738066        -0.251516
 C         1.398607         0.087687         0.126685
 C         1.743050        -1.195505         0.994582
 C         2.634770        -0.228488         1.985601
 C         2.699171         0.656397         0.737796
 O         3.185840         1.907270         0.699323
 C         2.795274        -0.219176        -0.602329
 O         3.215204         0.532927        -1.711648
 C         2.677905        -1.662276        -0.170143
 H        -0.755443         0.113798        -0.580533
 H        -0.227701         1.214339         0.757485
 H         0.289907         1.557415        -0.910542
 H         0.952672        -1.810014         1.467829
 H         2.236115         0.193057         2.875563
 H         3.605349        -0.640742         2.095632
 H         3.448514         2.157580        -0.220163
 H         3.617932         0.022273        -2.422594
 H         2.178677        -2.423337        -0.786986
 H         3.508858        -2.233887         0.160191
