19
Iteration:   664
 C        -0.034433         0.639662        -0.376809
 C         1.330664         0.023765         0.037427
 C         1.938574        -1.385576         0.567173
 C         2.609136        -0.634013         1.771598
 C         2.522957         0.548988         0.886766
 O         2.781654         1.824808         1.306214
 C         2.727022         0.033262        -0.616986
 O         3.576894         0.951869        -1.335407
 C         2.958371        -1.460313        -0.608907
 H        -0.254378         0.511645        -1.465712
 H        -0.762422        -0.020064         0.089725
 H        -0.283096         1.731177        -0.235972
 H         1.420692        -2.339816         0.695992
 H         1.940995        -0.677385         2.561386
 H         3.506713        -0.911970         2.371470
 H         3.634745         2.105883         0.763323
 H         3.313592         1.096973        -2.237089
 H         2.569340        -1.978646        -1.464273
 H         3.874932        -1.811723        -0.420979
