19
Iteration:  2287charge 0 multiplicity 1
 C         0.112364         0.709886        -0.154187
 C         1.415265         0.142585         0.069159
 C         1.776038        -1.229697         0.907196
 C         2.591394        -0.392572         1.919050
 C         2.702370         0.673072         0.714782
 O         3.075669         2.053716         0.792178
 C         2.683297        -0.178590        -0.583141
 O         3.270792         0.467548        -1.693498
 C         2.856919        -1.667876        -0.178849
 H         0.120959         1.795275        -0.302058
 H        -0.284260         0.227483        -1.077626
 H        -0.519520         0.551123         0.792102
 H         1.056366        -2.036894         1.261577
 H         2.029724         0.025263         2.671157
 H         3.463124        -0.748343         2.366757
 H         3.350433         2.345021        -0.092091
 H         2.654300         0.446451        -2.414282
 H         2.380271        -2.176606        -1.072514
 H         3.884451        -2.136411         0.050192
