19
Iteration:  3530charge 0 multiplicity 1
 C         0.107243         0.744511        -0.302284
 C         1.331710         0.038024         0.103265
 C         1.770842        -1.289242         0.897758
 C         2.647476        -0.483076         1.865973
 C         2.594102         0.610754         0.788446
 O         3.016828         1.961606         0.819159
 C         2.770577        -0.093364        -0.518858
 O         3.412346         0.610414        -1.597480
 C         2.780581        -1.546419        -0.275560
 H         0.456198         1.726811        -0.739688
 H        -0.409882        -0.002385        -0.999537
 H        -0.503569         1.048904         0.620772
 H         1.149955        -2.164250         1.354915
 H         2.392541        -0.347333         2.854100
 H         3.600471        -0.918673         2.061577
 H         3.393478         2.398049        -0.057635
 H         2.515102         0.780659        -2.129230
 H         2.097270        -2.117789        -1.050414
 H         3.741404        -2.016190        -0.072140
