19
Iteration:  3893charge 0 multiplicity 1
 C        -0.038985         0.700221        -0.205137
 C         1.330561         0.086515         0.094675
 C         1.766905        -1.171366         0.945051
 C         2.721513        -0.285477         1.864258
 C         2.721028         0.635774         0.633121
 O         3.124331         1.999000         0.907717
 C         2.673450        -0.148260        -0.581081
 O         3.449299         0.398825        -1.659360
 C         2.679602        -1.602415        -0.266043
 H        -0.240599         1.249272        -1.150433
 H        -0.851438        -0.069663        -0.029163
 H        -0.254591         1.416953         0.577305
 H         1.192755        -1.943329         1.431425
 H         2.151828         0.147283         2.739859
 H         3.749501        -0.813965         2.093423
 H         3.331392         2.183463        -0.032293
 H         3.123737         0.614004        -2.464640
 H         2.085721        -2.392680        -0.945577
 H         3.620681        -2.024507         0.079879
