19
Iteration:  3912
 C         0.013043         0.720985        -0.149023
 C         1.410756         0.157994         0.144937
 C         1.761855        -1.173855         0.914579
 C         2.728276        -0.357268         1.886175
 C         2.569512         0.677810         0.769417
 O         3.045703         1.990422         0.812752
 C         2.766032        -0.153883        -0.614304
 O         3.472199         0.380706        -1.771136
 C         2.698618        -1.635853        -0.169527
 H         0.082516         1.498329        -0.970916
 H        -0.780625         0.011414        -0.403262
 H        -0.491393         1.254581         0.784820
 H         0.945225        -1.766050         1.273359
 H         2.184731        -0.058339         2.762082
 H         3.603958        -0.933703         1.948555
 H         3.472465         2.175621        -0.025771
 H         2.730264         0.543182        -2.236997
 H         2.211883        -2.029397        -1.099778
 H         3.714220        -2.154564         0.005418
