19
Iteration:  1199charge 0 multiplicity 1
 C         0.061140         0.604400        -0.332707
 C         1.379782         0.008496         0.028563
 C         1.791439        -1.374898         0.749887
 C         2.521034        -0.515816         1.801598
 C         2.580648         0.585047         0.821450
 O         2.995690         1.854549         1.140822
 C         2.764140         0.000760        -0.613307
 O         3.349930         0.885315        -1.432449
 C         3.001344        -1.516484        -0.500497
 H         0.072270         1.677708        -0.033692
 H        -0.275358         0.508732        -1.395574
 H        -0.741815         0.123176         0.224821
 H         0.988414        -2.161990         0.935861
 H         1.875649        -0.147365         2.629145
 H         3.461883        -0.971803         2.197295
 H         3.805399         2.093022         0.616913
 H         2.878791         0.863379        -2.271996
 H         2.548661        -2.055305        -1.365473
 H         3.989554        -1.945721        -0.225689
