19
Iteration:  2774
 C         0.066472         0.834733        -0.201444
 C         1.373010         0.091404         0.234218
 C         1.831895        -1.308200         0.990054
 C         2.664169        -0.284688         1.851062
 C         2.666675         0.675832         0.715583
 O         3.101264         2.009484         0.749622
 C         2.646932        -0.163574        -0.563852
 O         3.278154         0.421774        -1.724179
 C         2.769496        -1.669668        -0.208647
 H        -0.719577         0.047211        -0.358692
 H        -0.221326         1.669663         0.497623
 H         0.271105         1.235276        -1.187655
 H         1.127227        -1.857181         1.502334
 H         2.159220         0.157930         2.701982
 H         3.777493        -0.514142         2.165320
 H         3.570691         2.065739        -0.042919
 H         2.986800        -0.056762        -2.543093
 H         2.280644        -2.301062        -0.997315
 H         3.798420        -2.143989         0.142920
