19
Iteration:  1038
 C        -0.005444         0.647636        -0.392546
 C         1.308923         0.038392         0.050111
 C         1.957677        -1.347332         0.662650
 C         2.495622        -0.594469         1.851202
 C         2.605730         0.586185         0.809842
 O         2.980593         1.808700         1.249595
 C         2.756201        -0.010485        -0.608363
 O         3.390580         0.837205        -1.511985
 C         3.028048        -1.476959        -0.432976
 H         0.036498         0.777952        -1.544471
 H        -0.989487         0.118086        -0.072101
 H        -0.161034         1.660119        -0.022876
 H         1.229726        -2.161871         0.680690
 H         1.671371        -0.258682         2.585129
 H         3.379004        -0.964116         2.262617
 H         3.325451         2.154488         0.420194
 H         2.624269         1.254118        -1.827166
 H         2.401457        -1.905606        -1.304476
 H         4.117794        -1.812464        -0.150455
