19
Iteration:  2359
 C         0.028340         0.642250        -0.286187
 C         1.377782         0.103564         0.177218
 C         1.767473        -1.226314         0.987362
 C         2.721380        -0.332290         1.840646
 C         2.729493         0.663112         0.726219
 O         3.118450         1.982025         0.709497
 C         2.791036        -0.128036        -0.504956
 O         3.230129         0.552841        -1.607140
 C         2.731725        -1.622855        -0.194903
 H        -0.378235         1.572830         0.203552
 H         0.083952         0.734476        -1.408805
 H        -0.677910        -0.143432        -0.098480
 H         0.867413        -1.817119         1.271072
 H         2.328297         0.121591         2.860833
 H         3.688661        -0.893838         2.190353
 H         3.606044         2.082591        -0.112817
 H         2.804766         0.253881        -2.369880
 H         2.089541        -2.059552        -0.992023
 H         3.575527        -2.282866        -0.031301
