19
Iteration:  1020
 C         0.056373         0.615365        -0.401218
 C         1.397095         0.062930         0.001157
 C         1.833601        -1.414284         0.649653
 C         2.481211        -0.651422         1.877017
 C         2.478449         0.569837         0.979796
 O         3.015781         1.838755         1.168608
 C         2.789103         0.097848        -0.566602
 O         3.400238         0.856108        -1.558588
 C         2.950071        -1.451588        -0.459796
 H        -0.195987         0.523574        -1.425181
 H        -0.645879        -0.026869         0.139216
 H        -0.032195         1.689376        -0.045807
 H         1.305033        -2.278558         1.002904
 H         1.830866        -0.545519         2.707986
 H         3.578550        -0.900115         2.272234
 H         3.431914         2.054763         0.331304
 H         2.800658         1.256586        -2.167016
 H         2.805215        -1.898421        -1.459897
 H         3.961745        -1.619722         0.027329
