19
Iteration:  3444
 C        -0.037038         0.745069        -0.232099
 C         1.398792         0.075711         0.053798
 C         1.858574        -1.262332         0.842256
 C         2.564496        -0.494442         1.947445
 C         2.623071         0.664222         0.821057
 O         3.062151         2.006082         0.956138
 C         2.740216        -0.131091        -0.707618
 O         3.371771         0.598883        -1.691417
 C         2.869723        -1.586138        -0.300234
 H        -0.129431         1.481051        -1.074401
 H        -0.877014         0.011524        -0.393381
 H        -0.330874         1.364436         0.623893
 H         1.185634        -2.100877         1.222645
 H         1.770658        -0.063724         2.545818
 H         3.474930        -1.049299         2.409659
 H         3.950424         1.997684         0.721992
 H         2.987529         0.113259        -2.364349
 H         2.281768        -2.327283        -0.896874
 H         3.861650        -1.917164        -0.037148
