19
Iteration:   548charge 0 multiplicity 1
 C         0.217126         0.622851        -0.460451
 C         1.450182         0.065263         0.060254
 C         1.799066        -1.402691         0.509260
 C         2.594927        -0.797595         1.705349
 C         2.559167         0.494288         0.920863
 O         2.691888         1.885982         1.388596
 C         2.808097         0.085809        -0.546319
 O         3.321133         1.003935        -1.382092
 C         3.013278        -1.426534        -0.525261
 H        -0.753525         0.682557         0.119473
 H         0.478237         1.708314        -0.729085
 H         0.043892         0.078630        -1.361272
 H         1.130010        -2.331874         0.369963
 H         2.072986        -0.684467         2.675019
 H         3.541321        -1.353569         1.905661
 H         3.619537         2.099311         1.006490
 H         2.944305         0.954887        -2.296452
 H         2.641455        -1.969800        -1.418481
 H         4.085615        -1.793235        -0.220989
