19
Iteration:  3274
 C         0.045745         0.635119        -0.161086
 C         1.333473         0.103188         0.105268
 C         1.786626        -1.292051         0.918345
 C         2.607706        -0.359609         1.911970
 C         2.595303         0.624968         0.729800
 O         3.106842         1.929054         0.840672
 C         2.807242        -0.059683        -0.593980
 O         3.426888         0.607103        -1.674895
 C         2.730441        -1.593979        -0.299438
 H        -0.598211         0.897838         0.742370
 H         0.000610         1.488907        -0.885720
 H        -0.703823        -0.124966        -0.650209
 H         1.107512        -2.025721         1.199457
 H         1.943386        -0.168807         2.818495
 H         3.543267        -0.746053         2.292668
 H         3.763096         1.986648         0.141433
 H         2.948008         0.847999        -2.408294
 H         2.256991        -2.022962        -1.158800
 H         3.656375        -2.090556         0.017376
