19
Iteration:   542charge 0 multiplicity 1
 C         0.258629         0.587798        -0.463038
 C         1.437540         0.013490         0.103490
 C         1.791358        -1.415919         0.492483
 C         2.556253        -0.800128         1.669803
 C         2.593948         0.553269         0.955230
 O         2.690407         1.869228         1.364907
 C         2.828376         0.082680        -0.546089
 O         3.341468         1.034978        -1.387016
 C         2.994839        -1.396821        -0.538302
 H        -0.565381         0.807102         0.194336
 H         0.503714         1.555719        -0.825361
 H        -0.097899        -0.117388        -1.326339
 H         1.013761        -2.213493         0.724508
 H         1.997205        -0.602902         2.597407
 H         3.468319        -1.375027         1.853521
 H         3.578199         2.076551         1.209543
 H         2.859835         0.859028        -2.311746
 H         2.551742        -1.853605        -1.431964
 H         3.967484        -1.769207        -0.297159
