19
Iteration:  4081charge 0 multiplicity 1
 C        -0.048525         0.678928        -0.314583
 C         1.272158         0.102349         0.130435
 C         1.745038        -1.154359         0.969071
 C         2.704576        -0.348649         1.976739
 C         2.620979         0.653483         0.818631
 O         3.361325         1.925652         0.639082
 C         2.677197        -0.125649        -0.483521
 O         3.233829         0.535236        -1.676333
 C         2.787367        -1.565556        -0.170017
 H        -0.808131        -0.010824         0.041843
 H        -0.176077         1.810028        -0.029751
 H        -0.045133         0.616340        -1.384819
 H         1.022717        -1.871760         1.424268
 H         2.031780         0.040382         2.699787
 H         3.631500        -0.764853         2.287172
 H         3.937612         1.715100        -0.117298
 H         3.062426        -0.153992        -2.401974
 H         2.378435        -2.205659        -1.019189
 H         3.667614        -2.113467         0.067461
