19
Iteration:  4797charge 0 multiplicity 1
 C         0.153384         0.872143        -0.161098
 C         1.452799         0.166853         0.160925
 C         1.716399        -0.997184         1.174375
 C         2.734731        -0.068672         2.005896
 C         2.830577         0.679847         0.665935
 O         3.313596         1.985981         0.349932
 C         2.700170        -0.253343        -0.566183
 O         2.928249        -0.025992        -1.900361
 C         2.658359        -1.659839         0.067429
 H         0.288154         1.558555        -1.035796
 H        -0.522136         0.065856        -0.468096
 H        -0.175223         1.375778         0.766382
 H         1.100443        -1.831598         1.604650
 H         2.289370         0.360780         2.838567
 H         3.631800        -0.583373         2.286827
 H         2.607597         2.487929         0.831669
 H         3.751426         0.364857        -1.995601
 H         2.042676        -2.373571        -0.523868
 H         3.486212        -2.362162         0.397621
