19
Iteration:  4670
 C        -0.006756         0.739757        -0.175375
 C         1.387465         0.167871         0.182630
 C         1.735917        -0.978544         1.091206
 C         2.785971        -0.133374         1.875201
 C         2.711490         0.724527         0.612350
 O         3.399323         1.962639         0.574600
 C         2.638361        -0.248592        -0.591752
 O         3.095678         0.109900        -1.867348
 C         2.630303        -1.729147         0.057458
 H        -0.657481         0.510838         0.699576
 H         0.191846         1.812374        -0.141397
 H        -0.271899         0.266551        -1.110718
 H         1.049341        -1.463635         1.823473
 H         2.273547         0.360681         2.742539
 H         3.727214        -0.616783         2.131125
 H         2.943391         2.584477         0.024076
 H         3.840094         0.685825        -1.779949
 H         2.087899        -2.398244        -0.637507
 H         3.631433        -2.114446         0.382805
