19
Iteration:  3580charge 0 multiplicity 1
 C         0.195463         0.718396        -0.413792
 C         1.403817         0.048219         0.140652
 C         1.803822        -1.288238         0.961458
 C         2.595741        -0.401354         1.878475
 C         2.666239         0.623861         0.759505
 O         3.076536         1.944105         0.975041
 C         2.764986        -0.102120        -0.578146
 O         3.150031         0.644370        -1.736216
 C         2.793045        -1.614710        -0.249108
 H         0.250971         1.690524        -0.016171
 H         0.115546         0.611449        -1.466235
 H        -0.669777         0.315785         0.090050
 H         1.188642        -2.147116         1.332879
 H         1.893821         0.131966         2.688530
 H         3.529572        -0.635748         2.496392
 H         3.982013         1.978467         0.815569
 H         2.767218         0.185578        -2.421645
 H         2.220151        -1.834624        -1.072446
 H         3.742416        -2.203822        -0.165036
