19
Iteration:  2923charge 0 multiplicity 1
 C         0.043568         0.669514        -0.194453
 C         1.341328         0.111774         0.203444
 C         1.847165        -1.246637         0.976856
 C         2.651116        -0.355508         1.957173
 C         2.701190         0.696704         0.793353
 O         3.168774         2.062500         0.730309
 C         2.680818        -0.203557        -0.621007
 O         3.337389         0.477293        -1.677465
 C         2.673167        -1.598835        -0.339902
 H        -0.123618         1.505317         0.475809
 H         0.045433         1.047415        -1.201284
 H        -0.708789        -0.132781        -0.194824
 H         1.153283        -1.974897         1.505318
 H         2.003856        -0.009212         2.864128
 H         3.582655        -0.763546         2.407658
 H         3.472906         2.134337        -0.279234
 H         2.963208         0.385875        -2.576532
 H         1.977478        -2.249141        -0.958558
 H         3.609265        -2.143501        -0.102291
