19
Iteration:  1395
 C         0.019946         0.714923        -0.326322
 C         1.308637         0.081480         0.076274
 C         1.836162        -1.393528         0.726378
 C         2.696747        -0.559465         1.838992
 C         2.541718         0.577847         0.837134
 O         2.901091         1.861320         1.017100
 C         2.785296        -0.037034        -0.532841
 O         3.443248         0.759204        -1.444601
 C         2.908826        -1.477470        -0.427203
 H        -0.772538        -0.038857        -0.222514
 H        -0.244099         1.583389         0.257468
 H        -0.045554         0.885949        -1.410389
 H         1.037859        -2.158832         0.875943
 H         2.173410        -0.261800         2.717398
 H         3.783463        -0.862602         2.186140
 H         3.444002         2.325209         0.252153
 H         2.941834         0.911248        -2.406890
 H         2.474526        -1.873099        -1.342394
 H         3.857037        -2.005758        -0.267699
