19
Iteration:  4963charge 0 multiplicity 1
 C         0.090629         0.860849        -0.213177
 C         1.417172         0.221192         0.184439
 C         1.760317        -0.929063         1.289071
 C         2.896505        -0.024109         1.935314
 C         2.819146         0.766492         0.579704
 O         3.265087         2.016935         0.361239
 C         2.636613        -0.373634        -0.462999
 O         3.035552        -0.066479        -1.864184
 C         2.600351        -1.730888         0.126453
 H        -0.314603         0.370730        -1.150083
 H        -0.589729         0.729878         0.572106
 H         0.131389         1.903202        -0.508125
 H         1.102337        -1.498078         1.980177
 H         2.786733         0.427218         2.886029
 H         3.670402        -0.722803         2.029496
 H         3.422986         1.967648        -0.587869
 H         2.093738         0.134027        -2.334554
 H         1.984202        -2.419279        -0.396571
 H         3.585692        -2.286317         0.367384
