19
Iteration:  2890
 C        -0.003550         0.609937        -0.245116
 C         1.381956         0.085222         0.089127
 C         1.716729        -1.151245         0.974986
 C         2.630972        -0.295281         1.861082
 C         2.716345         0.643422         0.636190
 O         3.314182         1.926952         0.860958
 C         2.758635        -0.161760        -0.587862
 O         3.182329         0.519137        -1.696228
 C         2.767997        -1.560739        -0.156080
 H        -0.372550         0.761632         0.752671
 H        -0.014791         1.545585        -0.810376
 H        -0.723438        -0.150831        -0.604743
 H         1.069105        -1.973223         1.451898
 H         2.108651         0.350418         2.663832
 H         3.583664        -0.720672         2.208160
 H         3.498627         2.301112        -0.021508
 H         2.624452         0.323487        -2.403223
 H         2.327924        -2.257783        -0.908733
 H         3.661022        -2.037585         0.256800
