19
Iteration:  4138
 C         0.147022         0.779456        -0.199746
 C         1.417594         0.106775         0.069558
 C         1.763173        -1.152545         1.020867
 C         2.679873        -0.320430         1.882387
 C         2.661230         0.632170         0.687697
 O         3.135709         1.998549         0.728444
 C         2.779269        -0.182269        -0.524308
 O         3.216618         0.482004        -1.750799
 C         2.663239        -1.713608        -0.104082
 H        -0.408512         0.100974        -0.829346
 H        -0.486613         0.917419         0.739902
 H         0.127618         1.718572        -0.694951
 H         0.991338        -1.885766         1.367017
 H         2.171612         0.123258         2.729356
 H         3.561131        -0.781800         2.314863
 H         3.332219         2.212345        -0.173967
 H         3.523852        -0.241855        -2.266686
 H         2.028794        -2.044518        -0.888862
 H         3.514064        -2.285179         0.158392
