19
Iteration:  3764charge 0 multiplicity 1
 C         0.202228         0.636203        -0.305332
 C         1.460236         0.187576         0.110172
 C         1.732176        -1.129709         0.902520
 C         2.687185        -0.393490         1.944168
 C         2.696379         0.663714         0.858479
 O         3.033996         1.991736         0.933067
 C         2.761186        -0.149390        -0.626731
 O         3.261516         0.466324        -1.718540
 C         2.710619        -1.653563        -0.326112
 H        -0.658077        -0.068751        -0.209593
 H        -0.090831         1.535895         0.372069
 H         0.076117         1.096756        -1.301798
 H         1.027031        -1.891084         1.248961
 H         2.281890        -0.123526         2.928386
 H         3.540411        -0.951299         2.325111
 H         3.202248         2.448815         0.038713
 H         2.483535         0.480279        -2.428583
 H         2.060190        -2.323272        -0.991516
 H         3.683173        -2.153796        -0.006737
