19
Iteration:  3502
 C         0.003024         0.752000        -0.196172
 C         1.384397         0.135082         0.115813
 C         1.849785        -1.291189         0.830221
 C         2.629516        -0.399060         1.866134
 C         2.599203         0.631356         0.733578
 O         2.997975         1.953618         0.899586
 C         2.721312        -0.154839        -0.628042
 O         3.475214         0.638674        -1.539631
 C         2.762485        -1.664679        -0.374773
 H         0.030753         1.351888        -1.107177
 H        -0.619416        -0.098525        -0.398370
 H        -0.397372         1.239591         0.648407
 H         1.172841        -1.968514         1.233735
 H         1.960045        -0.064520         2.779289
 H         3.582456        -0.710014         2.483403
 H         3.561198         2.236532         0.074648
 H         3.030982         0.266106        -2.399995
 H         2.267884        -2.374053        -0.983777
 H         3.774216        -2.139956        -0.156372
