19
Iteration:  3868
 C         0.035671         0.659621        -0.190307
 C         1.381404         0.149276         0.142157
 C         1.780719        -1.183588         0.931729
 C         2.611624        -0.311500         1.906706
 C         2.611788         0.679919         0.724863
 O         3.215733         1.945195         0.812423
 C         2.736995        -0.159192        -0.554049
 O         3.316722         0.533062        -1.653823
 C         2.733529        -1.659092        -0.308977
 H         0.002906         0.756857        -1.306834
 H        -0.754731        -0.026717         0.090383
 H        -0.301091         1.710321         0.205489
 H         1.012879        -1.830234         1.333856
 H         1.969350        -0.061830         2.741162
 H         3.612144        -0.636977         2.139090
 H         3.554072         2.038098        -0.065226
 H         3.223347         0.110017        -2.504701
 H         2.081183        -2.311351        -0.921262
 H         3.713808        -2.186808         0.019281
