19
Iteration:  4325charge 0 multiplicity 1
 C         0.082641         0.651345        -0.235142
 C         1.436446         0.271020         0.230145
 C         1.834627        -1.205951         1.032488
 C         2.624515        -0.230112         1.957367
 C         2.741496         0.693757         0.768630
 O         3.279602         2.021311         0.605827
 C         2.678232        -0.193351        -0.576616
 O         3.114515         0.372689        -1.710126
 C         2.597745        -1.688084        -0.238490
 H        -0.316398         1.473242         0.389674
 H         0.165450         1.082206        -1.266682
 H        -0.551714        -0.250535        -0.309715
 H         1.195062        -1.825977         1.717160
 H         1.923831         0.232635         2.644511
 H         3.488764        -0.556010         2.424040
 H         3.939721         2.001847        -0.086269
 H         3.662948        -0.287955        -1.980635
 H         1.960221        -2.280405        -0.978655
 H         3.602933        -2.158086        -0.060225
