19
Iteration:   379charge 0 multiplicity 1
 C         0.059751         0.587499        -0.433477
 C         1.353666        -0.014577         0.050443
 C         1.889683        -1.426970         0.385219
 C         2.536816        -0.881990         1.680948
 C         2.563490         0.455372         0.983813
 O         2.708485         1.879341         1.343852
 C         2.803957         0.132325        -0.494632
 O         3.488053         1.031635        -1.294491
 C         3.064489        -1.277193        -0.560771
 H         0.191397         0.840045        -1.480266
 H        -0.884904         0.042419        -0.408884
 H         0.007864         1.533326         0.155841
 H         1.175857        -2.330485         0.382369
 H         1.706693        -0.872921         2.469331
 H         3.531956        -1.348501         2.026452
 H         3.396377         2.271113         0.870656
 H         2.949244         1.040310        -2.199200
 H         2.815926        -1.601577        -1.629629
 H         4.026030        -1.719768        -0.195170
