19
Iteration:  4277
 C         0.006613         0.763320        -0.313361
 C         1.334599         0.149747         0.198613
 C         1.773278        -1.154738         1.040085
 C         2.774065        -0.286556         1.820233
 C         2.684237         0.665347         0.729964
 O         3.279610         1.978929         0.697699
 C         2.590793        -0.249561        -0.617531
 O         3.270461         0.409368        -1.664836
 C         2.710044        -1.651169        -0.038639
 H        -0.114210         1.828677        -0.249685
 H        -0.256611         0.444532        -1.408035
 H        -0.663785         0.159132         0.273239
 H         0.981072        -1.760186         1.429465
 H         2.520967         0.242420         2.753405
 H         3.850430        -0.540816         2.105373
 H         3.305036         2.130474        -0.296457
 H         2.643643         0.197700        -2.466753
 H         2.116942        -2.342540        -0.751147
 H         3.666445        -2.096304         0.344843
