19
Iteration:   954charge 0 multiplicity 1
 C         0.128560         0.627273        -0.386262
 C         1.372657        -0.002692         0.100959
 C         1.907944        -1.330764         0.661110
 C         2.603199        -0.620515         1.747902
 C         2.491749         0.541040         0.899789
 O         2.798187         1.890926         1.201555
 C         2.772042         0.006260        -0.531531
 O         3.441798         0.900178        -1.431989
 C         2.892929        -1.455649        -0.568322
 H        -0.678062         0.021553        -0.706350
 H        -0.275555         1.279318         0.405335
 H         0.516025         1.270921        -1.211490
 H         1.343649        -2.165001         1.058606
 H         1.964377        -0.611502         2.626827
 H         3.620844        -1.107328         2.058855
 H         3.581801         2.170089         0.561803
 H         3.219865         0.411530        -2.344944
 H         2.352607        -1.813320        -1.441655
 H         3.805885        -1.969380        -0.293231
