19
Iteration:  2855
 C         0.063273         0.664843        -0.349298
 C         1.387255         0.150547         0.196025
 C         1.830769        -1.159170         1.001590
 C         2.690948        -0.284963         1.953210
 C         2.621699         0.681372         0.797818
 O         3.266626         1.896801         0.770416
 C         2.714237        -0.188607        -0.598105
 O         3.123861         0.485952        -1.707621
 C         2.755063        -1.576302        -0.235886
 H        -0.704619         0.271044         0.288096
 H        -0.101836         1.727754        -0.288535
 H        -0.175722         0.345720        -1.359228
 H         1.181097        -2.087914         1.324581
 H         2.123051         0.159551         2.876673
 H         3.714028        -0.593630         2.348168
 H         3.793638         1.963256         0.006190
 H         2.508477         0.250179        -2.421665
 H         2.230792        -2.216104        -0.934593
 H         3.754700        -2.080411         0.063034
