19
Iteration:  3724charge 0 multiplicity 1
 C         0.018972         0.746674        -0.174498
 C         1.344823         0.083761         0.136081
 C         1.821462        -1.227823         0.871773
 C         2.602886        -0.338103         1.865490
 C         2.661739         0.633964         0.716322
 O         3.102244         1.949566         0.886926
 C         2.627665        -0.164789        -0.612927
 O         3.352283         0.519160        -1.629003
 C         2.828804        -1.609874        -0.305742
 H        -0.843727         0.279521         0.274074
 H         0.132127         1.780490         0.100265
 H        -0.039634         0.737921        -1.313313
 H         1.037515        -1.983298         1.319596
 H         1.980563         0.190445         2.665725
 H         3.610391        -0.665105         2.135897
 H         3.815382         1.942148         0.288436
 H         3.174477         0.089944        -2.451645
 H         2.439018        -2.244366        -1.046267
 H         3.870516        -1.799776         0.036273
