19
Iteration:  2847
 C         0.092740         0.666878        -0.364360
 C         1.378207         0.136766         0.160101
 C         1.854626        -1.213175         1.039474
 C         2.727140        -0.268161         1.933189
 C         2.663637         0.701106         0.781619
 O         3.220379         1.894117         0.743342
 C         2.667385        -0.110020        -0.460222
 O         3.137065         0.471153        -1.704033
 C         2.751842        -1.612731        -0.241482
 H        -0.631711         0.127899         0.254852
 H         0.103212         1.739079        -0.237392
 H        -0.113668         0.514556        -1.457967
 H         1.057653        -1.920124         1.386437
 H         2.063277         0.064388         2.744512
 H         3.577272        -0.711499         2.390977
 H         3.703260         1.888245        -0.040737
 H         2.496286         0.363466        -2.481177
 H         2.056986        -2.156893        -0.924756
 H         3.673611        -2.046376        -0.347867
