19
Iteration:  2622
 C         0.172975         0.736313        -0.338176
 C         1.360775         0.047165         0.212671
 C         1.820606        -1.230638         1.109855
 C         2.711779        -0.263215         1.843954
 C         2.707384         0.708015         0.693797
 O         3.236213         1.992451         0.821153
 C         2.670147        -0.146135        -0.553813
 O         3.129072         0.388975        -1.787664
 C         2.702198        -1.607461        -0.174861
 H        -0.006627         0.472805        -1.395020
 H        -0.809170         0.229980         0.059874
 H         0.000746         1.732943        -0.006818
 H         1.106602        -2.004861         1.468497
 H         2.159507         0.287386         2.672981
 H         3.535214        -0.589331         2.568204
 H         3.436972         2.335431        -0.088187
 H         2.410731         0.155971        -2.442935
 H         2.225976        -2.255396        -0.871589
 H         3.679201        -2.083984         0.068369
