19
Iteration:  4346
 C         0.065037         0.738189        -0.257922
 C         1.336835         0.101705         0.178890
 C         1.768049        -1.119951         1.042882
 C         2.719847        -0.229116         2.002581
 C         2.725362         0.669860         0.737591
 O         3.267312         1.954448         0.634661
 C         2.711673        -0.153374        -0.573740
 O         3.072732         0.337057        -1.818712
 C         2.698695        -1.622924        -0.096677
 H        -0.403284         1.087577         0.657602
 H         0.178247         1.613705        -0.961543
 H        -0.524439        -0.010165        -0.781312
 H         0.938778        -1.815752         1.385925
 H         2.145668         0.129497         2.808553
 H         3.574413        -0.739841         2.360368
 H         3.905507         2.110227        -0.102251
 H         4.075769         0.023021        -1.922327
 H         2.008481        -2.195850        -0.830384
 H         3.674945        -2.166483         0.009837
