19
Iteration:  1438charge 0 multiplicity 1
 C         0.083916         0.666051        -0.313589
 C         1.442489         0.105906         0.026362
 C         1.777408        -1.369130         0.667284
 C         2.525980        -0.512646         1.886668
 C         2.708675         0.571394         0.858970
 O         2.942433         1.930934         1.081290
 C         2.844632        -0.066512        -0.544397
 O         3.242219         0.875875        -1.550942
 C         2.926066        -1.627368        -0.418286
 H        -0.555998        -0.198482        -0.478528
 H        -0.267349         1.154328         0.542240
 H         0.063555         1.230502        -1.261904
 H         0.948085        -2.031638         0.978372
 H         1.869554        -0.351707         2.720358
 H         3.471137        -0.969503         2.431822
 H         3.700142         2.103189         0.442839
 H         3.012064         0.432863        -2.413431
 H         2.631422        -2.130331        -1.269290
 H         3.787866        -2.034320        -0.033845
