19
Iteration:  2013charge 0 multiplicity 1
 C         0.051658         0.684978        -0.238519
 C         1.375757         0.111313         0.108637
 C         1.892111        -1.182355         0.837867
 C         2.547987        -0.416423         1.918109
 C         2.658146         0.604110         0.754236
 O         3.061858         1.935473         0.929712
 C         2.753189        -0.099837        -0.607330
 O         3.267614         0.582779        -1.651639
 C         2.845788        -1.584484        -0.296458
 H        -0.347499         1.233891         0.619513
 H         0.215579         1.354209        -1.166793
 H        -0.757351         0.011426        -0.473382
 H         1.369889        -2.072795         1.196262
 H         1.929896         0.038982         2.681915
 H         3.527076        -0.840045         2.431589
 H         3.615791         2.126662         0.226567
 H         2.945836         0.042348        -2.480248
 H         2.238680        -2.214741        -0.870108
 H         3.822650        -2.060617        -0.238280
