19
Iteration:   687
 C         0.086440         0.585663        -0.359163
 C         1.396105         0.021072         0.017710
 C         1.826761        -1.401155         0.607746
 C         2.553849        -0.714867         1.760458
 C         2.533159         0.537029         0.847580
 O         2.744932         1.851414         1.264922
 C         2.916956         0.080555        -0.520240
 O         3.496503         0.997457        -1.391883
 C         2.936395        -1.446089        -0.529232
 H         0.050492         1.046381        -1.394324
 H        -0.772710        -0.137927        -0.304361
 H        -0.145737         1.501380         0.216229
 H         1.106829        -2.143315         0.664905
 H         2.238182        -0.683816         2.765775
 H         3.549994        -1.232865         1.963222
 H         3.107779         2.275147         0.521027
 H         3.074930         0.933639        -2.301076
 H         2.455653        -1.801658        -1.430950
 H         3.802738        -1.962737        -0.452017
