19
Iteration:  4451charge 0 multiplicity 1
 C         0.075665         0.825292        -0.297437
 C         1.381048         0.115101         0.194446
 C         1.782498        -1.069646         1.118736
 C         2.796973        -0.219307         1.833939
 C         2.662055         0.659123         0.668434
 O         3.225739         1.937967         0.506966
 C         2.623747        -0.231347        -0.545322
 O         3.192201         0.245642        -1.758233
 C         2.667350        -1.692484        -0.017990
 H        -0.577461         0.389842        -1.048275
 H        -0.457689         1.160883         0.632483
 H         0.433558         1.743408        -0.816752
 H         1.214608        -1.857629         1.556462
 H         2.462535         0.244725         2.808591
 H         3.777648        -0.807133         2.047189
 H         3.143512         2.321720         1.375483
 H         3.152472         1.146598        -1.671527
 H         2.117156        -2.361680        -0.668459
 H         3.502190        -2.260038         0.415206
