19
Iteration:   355charge 0 multiplicity 1
 C         0.107986         0.580873        -0.493213
 C         1.448787         0.037327        -0.035911
 C         1.946315        -1.437202         0.533029
 C         2.492607        -0.753225         1.769907
 C         2.438697         0.451240         0.977385
 O         2.724492         1.758402         1.465877
 C         2.901500         0.079483        -0.572711
 O         3.461215         1.140360        -1.341818
 C         2.992235        -1.348697        -0.686188
 H        -0.089559         0.310419        -1.495649
 H        -0.683461         0.053931         0.018382
 H         0.012890         1.717124        -0.244783
 H         1.214490        -2.353264         0.612710
 H         1.589939        -0.777256         2.521908
 H         3.523795        -1.092891         2.181551
 H         3.484745         2.123640         0.942766
 H         2.893463         1.288210        -2.134385
 H         2.459426        -1.713842        -1.670117
 H         4.012067        -1.929256        -0.505660
