19
Iteration:  2604
 C         0.032657         0.728160        -0.323447
 C         1.398951         0.132861         0.187090
 C         1.857126        -1.137235         0.943869
 C         2.669725        -0.221461         2.014592
 C         2.714430         0.684812         0.783489
 O         3.250513         1.950134         0.836884
 C         2.670235        -0.170587        -0.579773
 O         3.081248         0.294051        -1.793145
 C         2.810934        -1.619005        -0.210004
 H        -0.033594         0.608037        -1.427012
 H        -0.783608         0.268039         0.182539
 H         0.220069         1.835561        -0.192361
 H         1.297762        -1.933658         1.417314
 H         1.999903         0.212710         2.811799
 H         3.630760        -0.498606         2.208584
 H         3.449282         2.282880        -0.076624
 H         2.344333         0.177930        -2.460730
 H         2.249713        -2.373951        -0.952281
 H         3.799002        -1.948636         0.092667
