19
Iteration:  4640charge 0 multiplicity 1
 C         0.098988         0.887321        -0.171884
 C         1.385079         0.167988         0.193399
 C         1.823266        -1.065854         1.067212
 C         2.716484        -0.197465         1.970060
 C         2.699435         0.717647         0.657759
 O         3.299913         1.960443         0.524955
 C         2.633487        -0.259586        -0.555750
 O         3.029093         0.111477        -1.862322
 C         2.732040        -1.660316         0.011781
 H        -0.301835         1.324877         0.730389
 H         0.355335         1.556877        -1.123626
 H        -0.636945         0.151953        -0.590853
 H         1.155311        -1.649851         1.731739
 H         2.189002         0.206707         2.764928
 H         3.626172        -0.604051         2.422953
 H         2.755216         2.575180        -0.063563
 H         3.952598        -0.024236        -1.984725
 H         2.150188        -2.378675        -0.703199
 H         3.750213        -2.084204         0.218060
