19
Iteration:  2671charge 0 multiplicity 1
 C         0.081767         0.710378        -0.274851
 C         1.381259         0.126990         0.275684
 C         1.804914        -1.251001         1.045056
 C         2.762271        -0.315453         1.858061
 C         2.723937         0.699563         0.721130
 O         3.109289         2.006879         0.564190
 C         2.633281        -0.207049        -0.541292
 O         3.287752         0.472380        -1.599148
 C         2.656729        -1.620947        -0.136054
 H         0.033335         0.673775        -1.388588
 H        -0.838744         0.196901         0.038704
 H         0.114694         1.861412        -0.036388
 H         1.175298        -2.033461         1.614305
 H         2.265715        -0.104582         2.872629
 H         3.748289        -0.792835         1.983302
 H         3.612319         2.039349        -0.336725
 H         2.753089         0.362092        -2.444412
 H         1.936092        -2.110507        -0.970768
 H         3.646913        -2.153920        -0.050937
