19
Iteration:  3611
 C         0.128646         0.695071        -0.391723
 C         1.415905         0.213888         0.121226
 C         1.750016        -1.182891         0.879536
 C         2.672492        -0.520992         1.913828
 C         2.654966         0.663210         0.816692
 O         3.065073         2.006673         1.026472
 C         2.670488        -0.172283        -0.602266
 O         3.197969         0.484129        -1.703985
 C         2.876252        -1.567434        -0.274706
 H        -0.084021         1.697531         0.055925
 H         0.068966         0.858262        -1.519225
 H        -0.649892         0.001459        -0.080621
 H         1.021629        -1.874742         1.162546
 H         2.097961        -0.072787         2.709879
 H         3.622267        -0.972105         2.050173
 H         4.030333         2.239542         0.737035
 H         2.681812         0.183480        -2.570736
 H         2.406673        -2.114738        -1.081936
 H         3.893450        -2.025103        -0.074729
