19
Iteration:   972charge 0 multiplicity 1
 C         0.104576         0.625127        -0.383746
 C         1.406835         0.016771         0.024140
 C         1.828864        -1.434799         0.702196
 C         2.631932        -0.562559         1.885432
 C         2.564676         0.541397         0.851465
 O         2.830522         1.860586         1.186056
 C         2.794750         0.005237        -0.620342
 O         3.433254         1.003124        -1.427273
 C         2.840753        -1.537438        -0.530704
 H        -0.431504        -0.222974        -0.967217
 H        -0.554858         0.840876         0.529352
 H         0.332537         1.468709        -1.015050
 H         1.047231        -2.204881         0.695820
 H         1.926275        -0.372844         2.788824
 H         3.604589        -0.949128         2.185793
 H         3.707758         2.253796         0.778677
 H         3.358081         0.802879        -2.463450
 H         2.130210        -1.924054        -1.381550
 H         3.914063        -2.032747        -0.323438
