19
Iteration:  3489
 C        -0.004666         0.672960        -0.144643
 C         1.370742         0.111726         0.030263
 C         1.796256        -1.261662         0.876870
 C         2.543755        -0.435828         1.874247
 C         2.677714         0.617118         0.771225
 O         3.017098         1.978318         0.879745
 C         2.784552        -0.107756        -0.608523
 O         3.438378         0.641200        -1.632621
 C         2.783383        -1.639907        -0.284102
 H        -0.105424         1.359166        -1.036080
 H        -0.790673        -0.118169        -0.219389
 H        -0.272681         1.393403         0.614554
 H         1.134664        -2.060285         1.130161
 H         1.802138        -0.186381         2.715143
 H         3.603682        -0.905453         2.056097
 H         3.780133         2.124566         0.395535
 H         3.510910         0.397018        -2.508487
 H         2.211064        -1.965578        -1.139647
 H         3.746931        -2.112084        -0.051879
