19
Iteration:   579charge 0 multiplicity 1
 C         0.070421         0.710323        -0.459421
 C         1.368047        -0.027560        -0.045791
 C         1.930986        -1.484047         0.617989
 C         2.512143        -0.683060         1.758681
 C         2.466509         0.484212         0.880549
 O         2.834303         1.751099         1.377308
 C         2.842986         0.102041        -0.509445
 O         3.407043         1.034378        -1.411883
 C         3.040207        -1.416389        -0.530133
 H        -0.880282         0.189944        -0.148714
 H         0.213841         1.757531        -0.039981
 H         0.050332         0.925923        -1.487601
 H         1.451656        -2.383738         0.673424
 H         1.756552        -0.522884         2.545830
 H         3.534341        -1.039006         2.183953
 H         2.999940         2.230553         0.586033
 H         2.846323         1.103317        -2.249899
 H         2.559164        -1.868283        -1.469356
 H         4.156554        -1.870646        -0.472010
