19
Iteration:   204charge 0 multiplicity 1
 C         0.009372         0.660576        -0.406938
 C         1.348408        -0.016289        -0.035749
 C         1.979580        -1.466340         0.430600
 C         2.488838        -0.832969         1.682432
 C         2.396286         0.440398         0.948157
 O         2.643794         1.685648         1.488014
 C         2.892647         0.168256        -0.540777
 O         3.580138         1.101296        -1.299401
 C         3.119529        -1.265220        -0.697124
 H        -0.286558         1.411455         0.391507
 H         0.070555         1.111273        -1.404837
 H        -0.813311        -0.040988        -0.184265
 H         1.388188        -2.576635         0.375110
 H         1.690715        -0.702477         2.488757
 H         3.475815        -1.108151         2.012232
 H         3.312621         2.346406         1.104869
 H         3.148775         1.289195        -2.078698
 H         2.804471        -1.605181        -1.711807
 H         4.133495        -1.659928        -0.459836
