19
Iteration:  4278
 C         0.002596         0.761640        -0.316035
 C         1.331982         0.153922         0.200840
 C         1.771234        -1.151132         1.046695
 C         2.780400        -0.288292         1.827534
 C         2.689803         0.676556         0.716548
 O         3.275550         1.968599         0.696899
 C         2.595889        -0.249024        -0.609334
 O         3.271355         0.418999        -1.674321
 C         2.707845        -1.659454        -0.034896
 H        -0.142836         1.816013        -0.236351
 H        -0.272083         0.463558        -1.430841
 H        -0.647812         0.154171         0.275124
 H         0.973665        -1.766254         1.443744
 H         2.513748         0.204090         2.740708
 H         3.823521        -0.564681         2.087677
 H         3.313929         2.141895        -0.275715
 H         2.695265         0.172017        -2.437031
 H         2.102765        -2.355212        -0.766361
 H         3.667103        -2.084667         0.353685
