19
Iteration:  1824charge 0 multiplicity 1
 C         0.171221         0.632939        -0.264921
 C         1.435498         0.016055         0.162992
 C         1.811312        -1.239739         0.810724
 C         2.648092        -0.523000         1.835591
 C         2.640942         0.604086         0.765246
 O         2.903664         2.027769         0.886335
 C         2.756099        -0.083487        -0.592068
 O         3.326554         0.707324        -1.558166
 C         2.770764        -1.609683        -0.300525
 H        -0.537749        -0.020305        -0.891833
 H        -0.461148         1.026171         0.596848
 H         0.588373         1.538802        -0.841471
 H         0.964254        -1.912655         1.231069
 H         2.129945        -0.066671         2.593904
 H         3.481410        -1.108608         2.197313
 H         3.830798         2.104759         0.531276
 H         2.755981         0.684256        -2.391087
 H         2.323511        -2.139704        -1.124047
 H         3.758346        -2.114027        -0.061094
