19
Iteration:  4896charge 0 multiplicity 1
 C         0.107996         0.806706        -0.210312
 C         1.411764         0.204411         0.235833
 C         1.780405        -0.947498         1.178300
 C         2.774631        -0.039865         1.939164
 C         2.848423         0.724417         0.639787
 O         3.303760         1.917192         0.288500
 C         2.678737        -0.300901        -0.528747
 O         2.897433         0.123199        -1.841557
 C         2.571636        -1.714016         0.163440
 H        -0.490186         0.522615         0.678107
 H         0.177993         1.870814        -0.244020
 H        -0.243252         0.274127        -1.087220
 H         1.174711        -1.554351         1.940623
 H         2.393730         0.452834         2.767929
 H         3.696305        -0.518706         2.200950
 H         4.113564         1.867333        -0.294099
 H         3.641082        -0.312071        -2.115058
 H         2.060569        -2.425448        -0.522896
 H         3.488899        -2.312303         0.583415
