19
Iteration:   205
 C         0.006739         0.662250        -0.409601
 C         1.347986        -0.020522        -0.033454
 C         1.981476        -1.469889         0.427205
 C         2.490027        -0.832072         1.684914
 C         2.404630         0.434699         0.953722
 O         2.645466         1.692366         1.484092
 C         2.890163         0.167160        -0.535172
 O         3.581894         1.097540        -1.301372
 C         3.113032        -1.257621        -0.701739
 H        -0.316519         1.412067         0.416313
 H         0.076122         1.119200        -1.413886
 H        -0.792344        -0.044175        -0.217003
 H         1.387149        -2.557058         0.372354
 H         1.700200        -0.695697         2.488562
 H         3.448683        -1.130076         2.041853
 H         3.272320         2.337015         1.110641
 H         3.123055         1.285467        -2.058733
 H         2.810006        -1.571888        -1.733030
 H         4.168925        -1.684383        -0.443335
