19
Iteration:  3914charge 0 multiplicity 1
 C         0.036349         0.724961        -0.151414
 C         1.426647         0.169585         0.159137
 C         1.769519        -1.187763         0.892674
 C         2.722831        -0.353110         1.883883
 C         2.563795         0.677944         0.756007
 O         3.038706         2.001040         0.808148
 C         2.760546        -0.157228        -0.587626
 O         3.463939         0.379112        -1.767778
 C         2.696128        -1.629457        -0.157496
 H         0.064591         1.565873        -0.915871
 H        -0.766076        -0.014993        -0.428252
 H        -0.451255         1.187948         0.765901
 H         0.963749        -1.788911         1.258630
 H         2.128921        -0.064470         2.759880
 H         3.637553        -0.998892         1.968339
 H         3.482290         2.056415        -0.033650
 H         2.651054         0.551343        -2.333001
 H         2.201103        -2.062649        -1.162216
 H         3.673183        -2.141069         0.023692
