19
Iteration:  3685charge 0 multiplicity 1
 C         0.048630         0.755376        -0.146103
 C         1.341034         0.017854         0.174938
 C         1.701849        -1.285900         0.869386
 C         2.592068        -0.388224         1.862822
 C         2.676711         0.611440         0.749831
 O         3.085961         1.930195         0.676025
 C         2.781389        -0.105051        -0.531069
 O         3.376268         0.666765        -1.557179
 C         2.823784        -1.634323        -0.249190
 H        -0.694606         0.949561         0.697225
 H         0.228623         1.790140        -0.573889
 H        -0.484226         0.204543        -0.904845
 H         0.901871        -1.887074         1.147347
 H         1.960315        -0.069098         2.694086
 H         3.527440        -0.945992         2.135049
 H         3.586621         2.189075        -0.156333
 H         3.137309         0.296467        -2.434501
 H         2.439499        -2.249035        -1.164560
 H         3.747115        -2.167319        -0.012642
