19
Iteration:  1668charge 0 multiplicity 1
 C         0.136948         0.647648        -0.426092
 C         1.364682         0.033323         0.138099
 C         1.803473        -1.327731         0.834899
 C         2.690700        -0.531954         1.772426
 C         2.603949         0.638988         0.863457
 O         2.988275         1.913129         0.940119
 C         2.681811         0.030033        -0.561613
 O         3.281005         0.761765        -1.506757
 C         2.864983        -1.565155        -0.298808
 H        -0.259507         1.458899         0.217839
 H         0.256946         1.057075        -1.386279
 H        -0.769048        -0.011855        -0.283277
 H         1.077231        -2.083559         1.059610
 H         2.342974        -0.271792         2.677974
 H         3.575907        -1.095682         1.935459
 H         3.817278         2.027019         0.549871
 H         2.892547         0.652873        -2.351457
 H         2.504445        -2.229621        -1.152307
 H         3.816147        -2.080797         0.031782
