19
Iteration:   156
 C         0.124806         0.605232        -0.363261
 C         1.463896         0.010393        -0.035396
 C         1.905452        -1.443978         0.330263
 C         2.406839        -0.903096         1.701376
 C         2.536740         0.392210         0.977878
 O         2.627166         1.734676         1.388588
 C         2.920212         0.165651        -0.494295
 O         3.409138         1.281296        -1.223447
 C         3.104758        -1.339681        -0.664529
 H         0.125341         1.554358        -0.797190
 H        -0.195339        -0.088617        -1.128861
 H        -0.528694         0.674115         0.523135
 H         1.229073        -2.206521         0.264599
 H         1.596667        -0.848194         2.395685
 H         3.305179        -1.514814         2.047922
 H         3.479229         2.171043         1.064784
 H         3.491854         0.848902        -2.171835
 H         2.717868        -1.512254        -1.641386
 H         3.964521        -1.845234        -0.502461
