19
Iteration:  1797
 C         0.044369         0.744408        -0.276311
 C         1.415198         0.085821         0.038513
 C         1.951389        -1.363147         0.832451
 C         2.649288        -0.410635         1.946736
 C         2.588110         0.561385         0.813911
 O         2.922044         1.926745         0.888762
 C         2.764692        -0.074013        -0.603700
 O         3.328095         0.737027        -1.536381
 C         2.802665        -1.657746        -0.368091
 H        -0.650158        -0.079633        -0.286000
 H        -0.395560         1.440405         0.389451
 H         0.180945         1.292007        -1.211011
 H         1.298913        -2.097661         1.188514
 H         1.986668         0.221636         2.748623
 H         3.589824        -0.786066         2.514911
 H         3.850788         1.895604         0.546829
 H         3.079022         0.352656        -2.436222
 H         2.139245        -1.906290        -1.226162
 H         3.654894        -2.267859        -0.372828
