19
Iteration:  1945
 C         0.038970         0.666156        -0.361134
 C         1.287951        -0.003202         0.199268
 C         1.856095        -1.301658         0.897932
 C         2.721691        -0.361018         1.880985
 C         2.586791         0.632283         0.780843
 O         3.090950         1.925318         0.858894
 C         2.678505        -0.098226        -0.564478
 O         3.374431         0.678308        -1.537025
 C         2.741048        -1.562118        -0.349118
 H         0.183455         1.735254        -0.453425
 H        -0.252040         0.202377        -1.299531
 H        -0.876966         0.685821         0.247244
 H         1.354120        -2.236064         1.100970
 H         2.249574        -0.030532         2.788234
 H         3.751772        -0.859760         2.102591
 H         3.705912         1.996702         0.016217
 H         2.926826         0.763888        -2.372022
 H         2.253347        -2.246488        -0.966482
 H         3.652339        -2.018193        -0.024353
