19
Iteration:  1378
 C         0.022320         0.646412        -0.318775
 C         1.425168         0.077606         0.053749
 C         1.848378        -1.279565         0.714173
 C         2.626287        -0.626880         1.769088
 C         2.601628         0.583405         0.888811
 O         2.893688         1.991645         1.061232
 C         2.765954        -0.027368        -0.581306
 O         3.473759         0.813612        -1.460214
 C         2.822352        -1.640543        -0.395507
 H        -0.795099        -0.028945         0.043190
 H        -0.153238         1.665169         0.185632
 H        -0.139331         0.926114        -1.361723
 H         1.283732        -2.106258         1.071650
 H         2.081157        -0.624751         2.754369
 H         3.590649        -1.038262         1.760709
 H         3.051985         2.267563         0.094403
 H         2.833683         0.759653        -2.308410
 H         2.500278        -2.252375        -1.315886
 H         3.853502        -1.925734         0.003510
