19
Iteration:  4300
 C        -0.001976         0.634195        -0.234460
 C         1.368253         0.107532         0.141606
 C         1.742511        -1.069378         1.069711
 C         2.737420        -0.244914         1.902187
 C         2.715429         0.627548         0.743620
 O         3.267106         1.969322         0.666472
 C         2.770639        -0.194468        -0.600010
 O         3.190716         0.465423        -1.704889
 C         2.601595        -1.637450        -0.125640
 H        -0.005642         1.655066         0.053888
 H         0.086256         0.735260        -1.400520
 H        -0.864101         0.045769        -0.044402
 H         1.045102        -1.652358         1.666146
 H         2.429989         0.318479         2.755789
 H         3.698704        -0.697158         2.212106
 H         3.643423         2.006999        -0.231146
 H         3.370820        -0.237277        -2.353805
 H         1.904850        -2.228860        -0.872184
 H         3.486982        -2.261349         0.154535
