19
Iteration:  1192
 C         0.032980         0.645158        -0.309519
 C         1.391854         0.028498         0.014082
 C         1.858958        -1.359491         0.747431
 C         2.472882        -0.553376         1.828307
 C         2.556854         0.573136         0.788500
 O         2.998050         1.849671         1.133117
 C         2.817189        -0.015126        -0.529133
 O         3.356393         0.885801        -1.476414
 C         2.979369        -1.494487        -0.537773
 H         0.014780         1.766382        -0.172107
 H        -0.263226         0.306632        -1.373833
 H        -0.673191         0.105345         0.317586
 H         1.263190        -2.172618         1.018286
 H         1.606377        -0.204765         2.625126
 H         3.431793        -0.995237         2.356287
 H         3.714962         2.031899         0.571548
 H         2.842011         0.852471        -2.199295
 H         2.490972        -2.100953        -1.290712
 H         3.909889        -1.926543        -0.280048
