19
Iteration:  4732
 C         0.135218         0.712252        -0.276652
 C         1.342937         0.227013         0.264440
 C         1.696025        -1.029623         1.213168
 C         2.816899        -0.194507         1.902556
 C         2.721216         0.704885         0.684001
 O         3.368518         1.881293         0.240027
 C         2.668421        -0.219494        -0.476409
 O         3.082653         0.190152        -1.798872
 C         2.565452        -1.672528         0.069928
 H        -0.459606        -0.079422        -0.819166
 H        -0.506104         1.126695         0.479972
 H         0.153830         1.604568        -0.912088
 H         1.070600        -1.627530         1.904225
 H         2.516578         0.224091         2.921224
 H         3.831285        -0.648071         2.072555
 H         3.127701         2.645257         0.745037
 H         3.499811         1.012267        -1.668190
 H         2.024305        -2.251001        -0.633963
 H         3.497035        -2.189073         0.344135
