19
Iteration:  2382charge 0 multiplicity 1
 C         0.152244         0.650900        -0.367357
 C         1.372683         0.069017         0.209560
 C         1.907674        -1.230103         0.998982
 C         2.777924        -0.320137         1.965216
 C         2.620541         0.706273         0.845779
 O         3.126582         1.981436         0.701695
 C         2.638476        -0.146875        -0.587877
 O         3.243219         0.568793        -1.642695
 C         2.618344        -1.653799        -0.230861
 H        -0.304305         1.445496         0.249116
 H         0.515577         1.043026        -1.323164
 H        -0.615593        -0.113518        -0.491432
 H         1.108534        -1.800610         1.527141
 H         2.170378        -0.156039         2.953151
 H         3.776949        -0.818364         2.331023
 H         3.226590         2.039341        -0.301823
 H         3.013385         0.328916        -2.634541
 H         1.959590        -2.121949        -1.009114
 H         3.507212        -2.233770        -0.148758
