19
Iteration:  1674charge 0 multiplicity 1
 C         0.115964         0.656560        -0.380305
 C         1.345288         0.025310         0.115614
 C         1.803100        -1.262660         0.799230
 C         2.685613        -0.592354         1.780914
 C         2.588252         0.631642         0.890947
 O         2.990067         1.930304         0.917687
 C         2.739247         0.002188        -0.543280
 O         3.272044         0.780030        -1.538012
 C         2.866501        -1.559088        -0.254563
 H        -0.259997         1.438229         0.286585
 H         0.289617         1.008386        -1.463083
 H        -0.693634        -0.099179        -0.619712
 H         1.161717        -2.093925         1.169990
 H         2.223054        -0.458583         2.900516
 H         3.663360        -1.201761         1.741333
 H         3.951755         2.003039         0.498331
 H         2.850402         0.713616        -2.512948
 H         2.453445        -2.153118        -1.042703
 H         3.759782        -2.016025         0.166064
