19
Iteration:  1293
 C         0.071443         0.687939        -0.386127
 C         1.393930         0.040087        -0.019531
 C         1.817060        -1.260136         0.694126
 C         2.660441        -0.648364         1.848240
 C         2.640589         0.545218         0.843392
 O         2.891092         1.851682         1.142609
 C         2.832050        -0.034557        -0.521445
 O         3.279010         0.858015        -1.554885
 C         2.910358        -1.531533        -0.355569
 H        -0.295443         1.196637         0.483054
 H         0.152973         1.357771        -1.246795
 H        -0.620513        -0.165611        -0.777489
 H         0.973706        -1.982414         0.933575
 H         1.998110        -0.130484         2.669446
 H         3.674680        -1.108629         2.288018
 H         3.628193         2.175905         0.638189
 H         2.625042         0.850957        -2.255100
 H         2.711132        -1.937377        -1.312141
 H         3.844497        -1.879275         0.041195
