19
Iteration:   974charge 0 multiplicity 1
 C         0.088596         0.625610        -0.388673
 C         1.418939         0.031992         0.019701
 C         1.830408        -1.441383         0.702942
 C         2.625244        -0.552043         1.870773
 C         2.582795         0.524339         0.850391
 O         2.837453         1.867978         1.180870
 C         2.787110        -0.010899        -0.608593
 O         3.432927         1.013731        -1.427361
 C         2.838953        -1.537217        -0.525419
 H        -0.401579        -0.196628        -0.958050
 H        -0.592742         0.774308         0.524037
 H         0.296370         1.505906        -1.005383
 H         1.060747        -2.205619         0.722593
 H         1.918288        -0.392050         2.747301
 H         3.625875        -1.018497         2.238535
 H         3.658142         2.260338         0.815368
 H         3.305840         0.782613        -2.404470
 H         2.162861        -1.922524        -1.412721
 H         3.899819        -2.054990        -0.268539
