19
Iteration:  3551
 C         0.129945         0.756114        -0.388671
 C         1.432527         0.125319         0.163925
 C         1.792241        -1.238552         0.830556
 C         2.685964        -0.468455         1.915425
 C         2.676668         0.617129         0.843555
 O         2.996990         1.961335         0.852451
 C         2.707954        -0.130330        -0.580585
 O         3.243139         0.651168        -1.608436
 C         2.796707        -1.709565        -0.239324
 H         0.327744         1.846815        -0.439915
 H        -0.171871         0.310118        -1.372601
 H        -0.674078         0.627087         0.405346
 H         0.988179        -2.010807         1.202234
 H         2.089688        -0.295065         2.774851
 H         3.625208        -0.664602         2.396940
 H         3.773717         2.063098         0.240508
 H         2.639279         0.547537        -2.359197
 H         2.482750        -2.157878        -1.270902
 H         3.737854        -2.169275         0.076035
