19
Iteration:  3662
 C         0.124480         0.714895        -0.209993
 C         1.431019         0.069914         0.065794
 C         1.882117        -1.251903         0.896801
 C         2.576448        -0.357292         1.908576
 C         2.660258         0.605453         0.823403
 O         3.052710         1.970494         0.810731
 C         2.691245        -0.148909        -0.598830
 O         3.392293         0.586084        -1.562032
 C         2.664897        -1.647865        -0.333950
 H        -0.309461         1.284585         0.659705
 H         0.143251         1.491505        -0.997401
 H        -0.590473        -0.029274        -0.537625
 H         1.143167        -1.949339         1.282849
 H         1.879088         0.027085         2.639190
 H         3.610770        -0.715009         2.283842
 H         3.309315         2.256978        -0.059799
 H         2.921968         0.656248        -2.399565
 H         2.128391        -2.284996        -1.136634
 H         3.612855        -2.141863        -0.238060
