19
Iteration:  2961
 C         0.112729         0.841868        -0.171301
 C         1.411941         0.099101         0.122032
 C         1.795054        -1.175253         0.964505
 C         2.769898        -0.357543         1.925451
 C         2.601899         0.644524         0.749710
 O         2.936616         2.014661         0.709944
 C         2.743255        -0.235922        -0.634347
 O         3.324048         0.533155        -1.660168
 C         2.707557        -1.745843        -0.218914
 H        -0.105191         1.899221         0.193474
 H         0.005489         0.783024        -1.302762
 H        -0.747097         0.324848         0.299942
 H         1.141669        -1.911364         1.423879
 H         2.470948        -0.323606         2.921149
 H         3.745532        -0.821570         1.809209
 H         3.916278         2.033308         0.385206
 H         2.971133         0.338644        -2.466161
 H         2.372275        -2.506619        -0.897267
 H         3.670880        -2.113286         0.078953
