19
Iteration:   804charge 0 multiplicity 1
 C         0.108234         0.498064        -0.406445
 C         1.416832         0.025779         0.062160
 C         1.878065        -1.389694         0.636220
 C         2.567687        -0.569886         1.791657
 C         2.516822         0.598324         0.916959
 O         2.884431         1.836868         1.257929
 C         2.793103         0.039898        -0.544749
 O         3.467477         0.961509        -1.375825
 C         2.832892        -1.483723        -0.622839
 H        -0.293357         1.151302         0.305426
 H         0.290300         0.971536        -1.300601
 H        -0.677246        -0.276068        -0.574661
 H         1.143967        -2.181434         0.852976
 H         1.911861        -0.405132         2.576059
 H         3.490871        -0.898056         2.149527
 H         3.244566         2.296684         0.539398
 H         3.125870         1.070143        -2.308006
 H         2.296694        -1.713237        -1.548900
 H         3.802006        -2.093890        -0.683251
