19
Iteration:  4419
 C         0.221935         0.791770        -0.227983
 C         1.413661         0.154562         0.266568
 C         1.782081        -1.101898         1.071942
 C         2.700089        -0.248559         1.974563
 C         2.773869         0.688623         0.762933
 O         3.128184         1.999518         0.493051
 C         2.733430        -0.222234        -0.572163
 O         3.115567         0.171120        -1.816249
 C         2.621436        -1.687476        -0.175770
 H        -0.678649         0.216993        -0.167984
 H         0.077677         1.700749         0.475379
 H         0.471527         1.187422        -1.221357
 H         1.098622        -1.833073         1.474837
 H         2.142528         0.370309         2.718027
 H         3.754597        -0.732013         2.299907
 H         2.553207         2.599788         1.070108
 H         3.712062         1.040036        -1.816268
 H         1.976138        -2.098275        -0.954950
 H         3.361371        -2.383032         0.163282
