19
Iteration:  1502charge 0 multiplicity 1
 C         0.108137         0.683869        -0.376915
 C         1.382806         0.034993         0.082412
 C         1.864183        -1.358762         0.767362
 C         2.659194        -0.470994         1.815051
 C         2.600451         0.596200         0.846978
 O         2.921121         1.883102         1.100167
 C         2.719839         0.005036        -0.537360
 O         3.375152         0.692704        -1.532647
 C         2.846668        -1.520695        -0.411233
 H        -0.070935         0.566544        -1.459449
 H        -0.792198         0.240680         0.036549
 H         0.077060         1.833516        -0.152587
 H         1.174029        -2.165620         1.090789
 H         2.121053        -0.360218         2.760776
 H         3.692698        -0.892478         2.072842
 H         3.490667         2.335394         0.364408
 H         2.685515         0.962355        -2.280065
 H         2.143199        -1.993742        -1.266319
 H         3.891502        -2.061215        -0.375818
