19
Iteration:   648charge 0 multiplicity 1
 C        -0.008374         0.508812        -0.347601
 C         1.400195         0.037252         0.027739
 C         1.888095        -1.400433         0.552677
 C         2.516390        -0.682849         1.719961
 C         2.470099         0.532031         0.857074
 O         2.846217         1.862700         1.269155
 C         2.737123         0.063845        -0.569054
 O         3.557756         0.968204        -1.309771
 C         2.974958        -1.390011        -0.592463
 H        -0.350844         0.184687        -1.332075
 H        -0.790895         0.507891         0.457168
 H         0.160221         1.617338        -0.401061
 H         1.099613        -2.314056         0.740037
 H         1.866027        -0.464292         2.662790
 H         3.509372        -1.049333         2.067408
 H         3.744481         2.145192         0.934118
 H         3.178227         1.023623        -2.305496
 H         2.588331        -1.885259        -1.528757
 H         4.115002        -1.763091        -0.312799
