19
Iteration:  1390charge 0 multiplicity 1
 C         0.005382         0.710639        -0.319970
 C         1.335951         0.137197         0.058164
 C         1.840559        -1.395177         0.709589
 C         2.714605        -0.588597         1.819883
 C         2.526544         0.608758         0.818126
 O         2.896995         1.894406         1.027991
 C         2.803147        -0.056692        -0.544790
 O         3.435640         0.759223        -1.444157
 C         2.913856        -1.494461        -0.404717
 H        -0.742166        -0.076960        -0.139265
 H        -0.268318         1.615085         0.270268
 H        -0.027890         0.831229        -1.429898
 H         1.081966        -2.162088         0.878888
 H         2.201703        -0.395834         2.822463
 H         3.657553        -1.041222         2.120040
 H         3.239006         2.249772         0.233927
 H         3.006827         0.902765        -2.221658
 H         2.353247        -2.029810        -1.211960
 H         3.824819        -2.091304        -0.194700
