19
Iteration:   499
 C         0.124343         0.572737        -0.505768
 C         1.393509         0.041535        -0.004082
 C         1.951137        -1.394164         0.596261
 C         2.522550        -0.680399         1.764322
 C         2.520801         0.546434         0.935379
 O         2.751725         1.807196         1.425208
 C         2.779297         0.071717        -0.609032
 O         3.422751         1.029225        -1.341770
 C         2.989153        -1.465680        -0.685022
 H        -0.156187         1.412129         0.128098
 H         0.157528         1.028290        -1.473383
 H        -0.699346        -0.215482        -0.435063
 H         1.263252        -2.227246         0.707937
 H         1.781739        -0.771404         2.594992
 H         3.545463        -1.004445         2.103785
 H         3.686273         1.905663         1.616241
 H         2.979347         1.247793        -2.153868
 H         2.514522        -1.860352        -1.665026
 H         4.087556        -1.880243        -0.549346
