19
Iteration:  2053
 C         0.075521         0.729572        -0.234109
 C         1.371802         0.075108         0.104537
 C         1.747377        -1.263154         0.860755
 C         2.675142        -0.431928         1.851522
 C         2.659203         0.635311         0.769103
 O         3.023469         1.946216         0.864089
 C         2.748437        -0.137236        -0.575664
 O         3.247199         0.597401        -1.678479
 C         2.908344        -1.572955        -0.191323
 H        -0.725788         0.630860         0.499748
 H         0.299171         1.735993        -0.063804
 H        -0.199099         0.527548        -1.311383
 H         1.082022        -2.026434         1.206231
 H         2.032720        -0.149954         2.660410
 H         3.509418        -0.911913         2.290852
 H         3.670968         2.222262         0.094319
 H         2.792543         0.350813        -2.473225
 H         2.434423        -2.209963        -1.000809
 H         3.868431        -1.968433         0.202117
