19
Iteration:  3427
 C         0.099905         0.733075        -0.259115
 C         1.338350         0.045511         0.071834
 C         1.810476        -1.343703         0.860210
 C         2.609291        -0.369073         1.893959
 C         2.646489         0.641329         0.776017
 O         3.016079         1.950521         0.986284
 C         2.745148        -0.098495        -0.578092
 O         3.344536         0.594470        -1.716410
 C         2.806763        -1.594676        -0.282513
 H         0.377053         1.408671        -1.068014
 H        -0.645848         0.087780        -0.701676
 H        -0.345058         1.170898         0.658857
 H         1.062630        -2.013670         1.234069
 H         1.964183        -0.048852         2.769581
 H         3.617675        -0.676387         2.110624
 H         3.837450         2.087333         0.584164
 H         2.800519         0.699318        -2.455892
 H         2.460573        -2.106019        -1.164966
 H         3.749897        -2.182830         0.021818
