19
Iteration:  3339charge 0 multiplicity 1
 C         0.011781         0.692781        -0.430437
 C         1.377379         0.092851         0.162737
 C         1.834357        -1.253343         0.914290
 C         2.661842        -0.446702         1.951048
 C         2.657513         0.640903         0.763699
 O         3.185895         1.955892         0.956817
 C         2.712379        -0.119966        -0.611419
 O         3.221585         0.703120        -1.653438
 C         2.787815        -1.676323        -0.271300
 H        -0.275599         1.711197        -0.029996
 H        -0.007363         0.699042        -1.542350
 H        -0.845008        -0.009463        -0.151095
 H         1.069058        -1.837026         1.303872
 H         2.194987        -0.230474         2.954854
 H         3.547229        -0.922579         2.246032
 H         3.573105         2.422002         0.143923
 H         2.930375         0.301559        -2.489825
 H         2.402711        -2.280487        -1.056076
 H         3.704821        -2.239276         0.121259
