19
Iteration:   129
 C         0.103118         0.629710        -0.450294
 C         1.370654        -0.061378         0.012632
 C         1.992180        -1.498837         0.385514
 C         2.447774        -0.879355         1.722542
 C         2.434394         0.416517         0.963958
 O         2.698653         1.759806         1.490293
 C         2.817772         0.142112        -0.548169
 O         3.491468         1.207671        -1.185849
 C         3.101308        -1.255241        -0.755503
 H         0.342238         1.151251        -1.494497
 H        -0.696955        -0.130624        -0.697021
 H        -0.323506         1.354843         0.270269
 H         1.318823        -2.489660         0.354117
 H         1.545307        -0.859419         2.431099
 H         3.363339        -1.365490         2.010917
 H         3.527923         2.146692         1.057398
 H         3.012108         1.315123        -2.118364
 H         2.716792        -1.570210        -1.787679
 H         4.267660        -1.630926        -0.736959
