19
Iteration:   645charge 0 multiplicity 1
 C         0.012308         0.499417        -0.342022
 C         1.414285         0.022217         0.009892
 C         1.838474        -1.406620         0.542748
 C         2.519031        -0.693406         1.704970
 C         2.477957         0.531314         0.888748
 O         2.847289         1.860676         1.252331
 C         2.744086         0.076146        -0.533158
 O         3.554971         0.996722        -1.336959
 C         2.965140        -1.392696        -0.575201
 H        -0.462165         0.139509        -1.311761
 H        -0.728324         0.544200         0.533274
 H         0.155317         1.536943        -0.521098
 H         1.207859        -2.195326         0.701140
 H         1.896684        -0.506506         2.619646
 H         3.519545        -1.041948         2.179684
 H         3.768604         2.114177         0.895251
 H         3.209202         0.987063        -2.176228
 H         2.652990        -1.849986        -1.555333
 H         4.012872        -1.761385        -0.252350
