19
Iteration:   218
 C         0.028831         0.625109        -0.408603
 C         1.381834        -0.012442        -0.016007
 C         1.953052        -1.494158         0.320451
 C         2.502875        -0.869904         1.762619
 C         2.568570         0.469345         0.961483
 O         2.621913         1.760249         1.472748
 C         2.836233         0.195403        -0.460546
 O         3.569081         1.069679        -1.299018
 C         3.063345        -1.266894        -0.703829
 H        -0.427987         1.316202         0.391075
 H         0.116531         1.281370        -1.320987
 H        -0.632968        -0.115434        -0.752128
 H         1.330272        -2.354790         0.389004
 H         1.640728        -0.884632         2.429473
 H         3.353576        -1.313381         2.259046
 H         3.088671         2.168774         0.730305
 H         2.865582         1.382491        -2.024409
 H         2.773520        -1.485478        -1.749643
 H         4.147139        -1.712532        -0.475784
