19
Iteration:  2163
 C         0.005706         0.609378        -0.245592
 C         1.387371         0.062916         0.065985
 C         1.870219        -1.223284         0.907323
 C         2.586497        -0.296051         1.958512
 C         2.657715         0.672725         0.763039
 O         3.204749         1.901711         0.919141
 C         2.734958        -0.084450        -0.561095
 O         3.227441         0.558904        -1.708127
 C         2.821640        -1.578697        -0.293579
 H        -0.439657         0.053433        -1.132178
 H        -0.755452         0.597813         0.545381
 H         0.181431         1.704044        -0.655372
 H         1.071996        -1.861728         1.246090
 H         1.772148         0.030805         2.584803
 H         3.414075        -0.632116         2.504561
 H         3.561672         2.300331         0.021480
 H         2.913590         0.147330        -2.469356
 H         2.154518        -2.213326        -0.997041
 H         3.777030        -2.131407        -0.063596
