19
Iteration:  2535
 C         0.069136         0.752747        -0.197715
 C         1.344405         0.104449         0.188290
 C         1.893699        -1.243288         0.975706
 C         2.777533        -0.251750         1.934199
 C         2.578940         0.671959         0.779065
 O         3.087877         1.961330         0.567099
 C         2.687074        -0.163544        -0.524182
 O         3.348458         0.489052        -1.611774
 C         2.646886        -1.633682        -0.245300
 H        -0.722413        -0.028999        -0.491439
 H        -0.406640         1.369811         0.656810
 H         0.345895         1.346240        -1.096206
 H         1.276439        -2.075639         1.430770
 H         2.184213        -0.102309         2.911009
 H         3.733403        -0.725980         2.126233
 H         3.581497         1.827503        -0.340350
 H         2.940531         0.159672        -2.520728
 H         1.912784        -2.252205        -0.892233
 H         3.531482        -2.246466         0.100401
