19
Iteration:  1425
 C         0.100879         0.665518        -0.296691
 C         1.438690         0.031484         0.078550
 C         1.910587        -1.356172         0.760880
 C         2.504969        -0.606417         1.866073
 C         2.563979         0.589398         0.834988
 O         2.982094         1.960487         1.057327
 C         2.731632        -0.049567        -0.651282
 O         3.323537         0.857371        -1.513472
 C         2.893663        -1.582390        -0.390200
 H        -0.651136        -0.101721        -0.367171
 H        -0.281673         1.455652         0.309738
 H         0.116185         1.220768        -1.308245
 H         1.190968        -2.224444         0.838475
 H         1.688277        -0.241224         2.518524
 H         3.513327        -0.896819         2.307145
 H         3.773185         2.193507         0.587673
 H         3.162062         0.669570        -2.436033
 H         2.317608        -2.098571        -1.192338
 H         3.874698        -2.043475        -0.281909
