19
Iteration:  4058charge 0 multiplicity 1
 C         0.054349         0.599065        -0.299630
 C         1.410388         0.195526         0.129851
 C         1.722051        -1.151423         0.996602
 C         2.682157        -0.281516         1.852426
 C         2.726651         0.660636         0.740898
 O         3.265907         1.960479         0.819876
 C         2.683182        -0.217670        -0.576246
 O         3.239703         0.495037        -1.679580
 C         2.644244        -1.613617        -0.133735
 H        -0.705121         0.153290         0.370253
 H         0.050149         1.763679        -0.365351
 H        -0.129016         0.259595        -1.345446
 H         1.072399        -1.939014         1.379550
 H         2.157363         0.127817         2.706275
 H         3.613468        -0.752860         2.032153
 H         3.563919         2.205796        -0.074384
 H         2.782565         0.387412        -2.504025
 H         2.156030        -2.366747        -0.839713
 H         3.605334        -2.102016        -0.029197
