19
Iteration:  1630
 C         0.113647         0.615893        -0.335604
 C         1.432022         0.083442         0.080613
 C         1.902611        -1.368743         0.825515
 C         2.568483        -0.496407         1.889463
 C         2.605727         0.624809         0.821956
 O         2.999052         1.948423         1.079227
 C         2.780439        -0.064559        -0.539100
 O         3.369885         0.777407        -1.652166
 C         2.789538        -1.591168        -0.402556
 H         0.268207         1.616218         0.090191
 H        -0.254624         0.612767        -1.424597
 H        -0.687779         0.118818         0.204755
 H         1.027344        -2.029634         1.081846
 H         1.746340        -0.074736         2.628637
 H         3.536923        -0.829677         2.370699
 H         2.989131         2.364858         0.155028
 H         2.779928         0.367487        -2.409019
 H         2.063684        -1.884038        -1.125544
 H         3.656703        -2.195624        -0.386291
