19
Iteration:  4270charge 0 multiplicity 1
 C         0.046803         0.739819        -0.278920
 C         1.364619         0.135214         0.157645
 C         1.781331        -1.162693         1.008208
 C         2.766676        -0.251675         1.864610
 C         2.642788         0.648039         0.756295
 O         3.288623         2.015930         0.687574
 C         2.589135        -0.229167        -0.615128
 O         3.231022         0.332043        -1.636585
 C         2.712774        -1.615709        -0.102374
 H         0.091486         1.839274        -0.258707
 H        -0.084805         0.343652        -1.309952
 H        -0.875351         0.420274         0.286252
 H         1.028411        -1.845385         1.484594
 H         2.354404         0.270202         2.711921
 H         3.744088        -0.586192         2.044403
 H         3.335401         2.108889        -0.270902
 H         2.693182         0.532889        -2.361536
 H         2.231978        -2.426366        -0.719045
 H         3.650703        -2.081016         0.185394
