19
Iteration:  1785charge 0 multiplicity 1
 C         0.033443         0.709789        -0.274731
 C         1.342026         0.029442         0.117572
 C         1.914348        -1.305549         0.864957
 C         2.618885        -0.471276         1.886530
 C         2.564768         0.631980         0.800992
 O         2.974440         1.928343         0.912810
 C         2.790567        -0.090451        -0.558706
 O         3.358435         0.702159        -1.600995
 C         2.833153        -1.546500        -0.395837
 H        -0.856310         0.113666        -0.288006
 H        -0.039364         1.544510         0.412127
 H         0.030886         1.077686        -1.275078
 H         1.230252        -2.043001         1.150755
 H         1.829142        -0.322294         2.768080
 H         3.640360        -0.800428         2.257198
 H         3.782470         2.066924         0.485743
 H         3.197610         0.315443        -2.412777
 H         2.221938        -2.190149        -1.063953
 H         3.796613        -2.019821        -0.216501
