19
Iteration:  2615
 C         0.120755         0.702123        -0.327051
 C         1.349704         0.091667         0.212477
 C         1.824952        -1.249865         1.013556
 C         2.739253        -0.200858         1.925095
 C         2.717950         0.681912         0.723807
 O         3.255106         1.984736         0.844936
 C         2.628089        -0.167129        -0.568817
 O         3.109962         0.334285        -1.793178
 C         2.785943        -1.586465        -0.154665
 H         0.046476         0.579946        -1.431577
 H        -0.848884         0.434882         0.034704
 H         0.042901         1.818529        -0.057868
 H         0.985258        -1.802089         1.396990
 H         1.985755         0.129425         2.675973
 H         3.535400        -0.518358         2.556709
 H         3.413135         2.326885        -0.140657
 H         2.399232         0.210312        -2.569301
 H         2.177607        -2.172930        -0.984098
 H         3.758081        -2.060872        -0.106586
