19
Iteration:  3595charge 0 multiplicity 1
 C         0.100907         0.739514        -0.397337
 C         1.428905         0.081134         0.128807
 C         1.857353        -1.276959         0.842177
 C         2.641580        -0.359339         1.949089
 C         2.671240         0.655361         0.877193
 O         3.069256         1.952604         1.007223
 C         2.785886        -0.074914        -0.555693
 O         3.163022         0.585070        -1.795859
 C         2.755303        -1.627941        -0.288430
 H        -0.064491         1.819988        -0.167436
 H         0.153758         0.746624        -1.501492
 H        -0.829205         0.160298        -0.156486
 H         1.028419        -1.998517         1.272099
 H         1.977766        -0.227890         2.842941
 H         3.595501        -0.837374         2.341938
 H         4.065453         1.938894         0.814914
 H         2.733170         0.058991        -2.534529
 H         2.369544        -2.494887        -0.960964
 H         3.684771        -2.088103         0.090408
