19
Iteration:  2266
 C         0.140540         0.740850        -0.216600
 C         1.425394         0.038268         0.126902
 C         1.827879        -1.226106         0.951664
 C         2.685472        -0.347065         1.906283
 C         2.630336         0.602144         0.770175
 O         2.994371         1.964382         0.740693
 C         2.790678        -0.174749        -0.563370
 O         3.280801         0.619519        -1.689625
 C         2.709870        -1.666433        -0.189490
 H         0.307487         1.692851        -0.783482
 H        -0.615218         0.092964        -0.854781
 H        -0.435978         1.222086         0.736227
 H         0.945361        -1.842889         1.302633
 H         2.199673         0.041218         2.807147
 H         3.658195        -0.746030         2.199816
 H         3.388942         2.139551        -0.076639
 H         2.936109         0.150121        -2.595033
 H         2.205722        -2.307325        -0.991963
 H         3.812973        -2.073201         0.104102
