19
Iteration:  3954
 C         0.176224         0.842680        -0.219485
 C         1.391042         0.052943         0.177317
 C         1.826369        -1.239658         0.987982
 C         2.612271        -0.306010         1.938724
 C         2.665293         0.624636         0.736324
 O         3.037593         1.920957         0.679846
 C         2.755583        -0.158002        -0.620380
 O         3.206885         0.569226        -1.706305
 C         2.774478        -1.709503        -0.215891
 H         0.359626         1.917927        -0.218358
 H        -0.180111         0.566911        -1.183433
 H        -0.617226         0.478289         0.512748
 H         1.202426        -2.075500         1.325197
 H         1.894784         0.189622         2.601302
 H         3.494403        -0.571867         2.527771
 H         4.040726         2.035342         0.707992
 H         2.952423         0.207347        -2.615913
 H         2.156262        -2.333612        -0.740944
 H         3.693339        -2.227844         0.173878
