19
Iteration:   717charge 0 multiplicity 1
 C         0.134946         0.706196        -0.429048
 C         1.471913         0.027515         0.067091
 C         1.939661        -1.430972         0.559012
 C         2.517019        -0.719349         1.822612
 C         2.588630         0.531491         0.912901
 O         2.777799         1.857168         1.264131
 C         2.850183         0.011541        -0.539957
 O         3.316344         1.007574        -1.428343
 C         2.971893        -1.520856        -0.543416
 H         0.322921         1.590087        -1.013656
 H        -0.564244         0.116381        -0.943795
 H        -0.521249         1.080270         0.445986
 H         1.095485        -2.212483         0.676061
 H         1.754229        -0.606887         2.548041
 H         3.358056        -1.105766         2.351252
 H         3.030439         2.337453         0.386266
 H         2.944263         0.912653        -2.241505
 H         2.701458        -1.998408        -1.510341
 H         4.008681        -1.896028        -0.148571
