19
Iteration:  1373charge 0 multiplicity 1
 C         0.065285         0.626606        -0.299916
 C         1.390021         0.039740         0.049784
 C         1.806268        -1.277111         0.698583
 C         2.609407        -0.623229         1.769301
 C         2.641595         0.604097         0.926440
 O         2.893616         2.003828         1.061123
 C         2.776732        -0.052378        -0.586354
 O         3.464445         0.842674        -1.494918
 C         2.809418        -1.648232        -0.412798
 H        -0.774035         0.013058         0.025502
 H        -0.002995         1.559447         0.230164
 H        -0.173567         0.744840        -1.385208
 H         1.069229        -2.020587         1.139085
 H         2.104715        -0.578971         2.697571
 H         3.719595        -0.952633         1.970186
 H         3.058445         2.380292         0.216186
 H         3.041172         0.809884        -2.277786
 H         2.583733        -2.232560        -1.291542
 H         3.789212        -1.977757        -0.020553
