19
Iteration:   537charge 0 multiplicity 1
 C         0.256314         0.569199        -0.489088
 C         1.438193        -0.012022         0.124273
 C         1.809798        -1.413133         0.506689
 C         2.537323        -0.800598         1.687803
 C         2.599953         0.563091         0.948662
 O         2.691564         1.846844         1.349701
 C         2.837547         0.094524        -0.515696
 O         3.350781         1.056583        -1.412716
 C         2.954973        -1.391651        -0.566183
 H        -0.483117         0.800363         0.336106
 H         0.529406         1.540560        -1.038404
 H        -0.208296        -0.070887        -1.202758
 H         1.044598        -2.163068         0.844515
 H         1.892968        -0.665584         2.570653
 H         3.495302        -1.307748         1.943796
 H         3.669064         2.192819         1.366990
 H         2.932500         0.892998        -2.195663
 H         2.608637        -1.757232        -1.548253
 H         3.949546        -1.904837        -0.313582
