19
Iteration:  1924charge 0 multiplicity 1
 C         0.094799         0.633187        -0.343112
 C         1.408368         0.081516         0.143523
 C         1.756814        -1.295008         0.872838
 C         2.644133        -0.501201         1.853620
 C         2.612727         0.674902         0.841617
 O         3.104335         1.949890         0.847572
 C         2.709638        -0.074619        -0.512691
 O         3.264045         0.684292        -1.562700
 C         2.833922        -1.573011        -0.329121
 H         0.302615         1.553901        -0.900831
 H        -0.539889        -0.156932        -0.864314
 H        -0.491336         0.993588         0.495845
 H         1.125951        -2.058850         1.277855
 H         2.061210        -0.101685         2.610090
 H         3.589733        -0.908714         2.236502
 H         3.504844         2.287075        -0.008606
 H         2.892189         0.311208        -2.482272
 H         2.449956        -2.141271        -1.139666
 H         3.813119        -1.955150        -0.002882
