19
Iteration:   626charge 0 multiplicity 1
 C         0.004039         0.565579        -0.348473
 C         1.435650         0.037319        -0.017550
 C         1.829482        -1.357835         0.466615
 C         2.468993        -0.770335         1.837155
 C         2.551852         0.493350         0.857322
 O         2.838258         1.851821         1.221056
 C         2.942318         0.108155        -0.524420
 O         3.444537         1.079427        -1.364928
 C         2.981920        -1.435843        -0.483948
 H        -0.414965        -0.339452        -0.762805
 H        -0.529020         0.829782         0.607512
 H        -0.132764         1.468720        -0.967706
 H         1.034606        -2.271242         0.542099
 H         1.726649        -0.783426         2.722449
 H         3.369498        -1.358606         2.014006
 H         3.514179         2.245900         0.607453
 H         3.171101         0.941225        -2.208407
 H         2.564798        -1.884279        -1.420000
 H         3.929509        -2.102013        -0.163063
