19
Iteration:  2403charge 0 multiplicity 1
 C         0.123832         0.725383        -0.399723
 C         1.336629         0.134798         0.223229
 C         1.814171        -1.214197         1.015271
 C         2.763266        -0.271743         1.861137
 C         2.733225         0.649400         0.685301
 O         3.097280         1.973857         0.776328
 C         2.699794        -0.226194        -0.521521
 O         3.166060         0.506120        -1.571225
 C         2.730066        -1.686293        -0.260104
 H        -0.569168         1.143677         0.400709
 H         0.486152         1.562811        -1.069929
 H        -0.460573        -0.098905        -0.774222
 H         1.282974        -2.004678         1.572976
 H         2.256733         0.237395         2.782927
 H         3.778607        -0.700087         2.186715
 H         3.445006         2.176081        -0.052184
 H         2.569711         0.408035        -2.353379
 H         2.150630        -2.342604        -0.978262
 H         3.760469        -2.081564        -0.143946
