19
Iteration:  4609charge 0 multiplicity 1
 C         0.305351         0.860441        -0.236383
 C         1.457168         0.082062         0.132344
 C         1.803920        -1.122622         1.128476
 C         2.734963        -0.102250         1.971132
 C         2.819708         0.703675         0.628024
 O         3.161004         2.001066         0.551479
 C         2.669848        -0.366958        -0.582991
 O         2.966583         0.245833        -1.806092
 C         2.606893        -1.752499         0.006461
 H         0.121255         1.777154         0.285712
 H         0.015088         1.084082        -1.305609
 H        -0.566895         0.330192         0.161731
 H         1.127397        -1.615981         1.824299
 H         2.125624         0.506734         2.674409
 H         3.649995        -0.540483         2.576821
 H         2.688578         2.565634        -0.025232
 H         4.007602         0.176101        -1.956539
 H         1.860381        -2.209515        -0.699220
 H         3.480480        -2.346377         0.047779
