19
Iteration:   977
 C         0.063324         0.619368        -0.390010
 C         1.434658         0.056967         0.019221
 C         1.839385        -1.435296         0.695503
 C         2.611642        -0.552883         1.846491
 C         2.617084         0.505606         0.847355
 O         2.844194         1.878705         1.174023
 C         2.779125        -0.032359        -0.586798
 O         3.429087         1.023580        -1.427008
 C         2.840727        -1.541517        -0.516826
 H        -0.368678        -0.125043        -0.977980
 H        -0.599059         0.691816         0.446476
 H         0.198467         1.573296        -0.974951
 H         1.084745        -2.224988         0.824956
 H         1.942264        -0.418915         2.634300
 H         3.562880        -1.071040         2.284935
 H         3.618475         2.246932         0.833609
 H         3.210389         0.750570        -2.263555
 H         2.337958        -1.923572        -1.381889
 H         3.734489        -2.048352        -0.250409
