19
Iteration:  1445charge 0 multiplicity 1
 C         0.108206         0.611965        -0.309592
 C         1.451817         0.069742         0.024870
 C         1.725472        -1.295832         0.653899
 C         2.576081        -0.502239         1.880118
 C         2.682178         0.573163         0.857144
 O         2.953589         1.881649         1.076571
 C         2.886784        -0.037466        -0.498560
 O         3.225963         0.843879        -1.567906
 C         2.914507        -1.562937        -0.417778
 H        -0.603286        -0.165634        -0.625619
 H        -0.297269         1.213470         0.569332
 H         0.106371         1.431922        -1.136679
 H         1.028811        -2.108936         1.008175
 H         1.756806        -0.232166         2.626401
 H         3.344882        -1.155906         2.215731
 H         3.553201         2.340564         0.535194
 H         2.955386         0.469476        -2.329459
 H         2.622368        -2.294646        -1.335986
 H         3.846620        -2.060018         0.152917
