19
Iteration:   416
 C         0.039415         0.652362        -0.366231
 C         1.433327        -0.081532        -0.146564
 C         1.908607        -1.437043         0.499868
 C         2.513524        -0.719915         1.771006
 C         2.557751         0.484577         0.846882
 O         2.690279         1.718217         1.356986
 C         2.909831         0.094166        -0.568899
 O         3.448304         1.181711        -1.223638
 C         3.016825        -1.443689        -0.597508
 H         0.134594         1.521721        -1.090605
 H        -0.830143        -0.007575        -0.587645
 H        -0.250339         1.161929         0.509949
 H         1.319337        -2.295897         0.542055
 H         1.746177        -0.629956         2.474571
 H         3.376612        -1.055855         2.308017
 H         3.162520         2.114920         0.664773
 H         3.365641         1.253217        -2.260876
 H         2.631033        -1.845739        -1.451811
 H         3.900815        -1.883096        -0.388752
