19
Iteration:  3879charge 0 multiplicity 1
 C         0.001781         0.669717        -0.174681
 C         1.358985         0.147756         0.120646
 C         1.807892        -1.223295         0.935531
 C         2.667516        -0.298239         1.796522
 C         2.667954         0.699083         0.706228
 O         3.175435         1.941167         0.848304
 C         2.643794        -0.176502        -0.646091
 O         3.402975         0.464991        -1.587134
 C         2.692408        -1.624255        -0.231575
 H        -0.036030         0.873613        -1.281892
 H        -0.734085        -0.110421        -0.022667
 H        -0.218070         1.697315         0.382591
 H         1.042897        -1.850007         1.353549
 H         2.085463         0.130067         2.609151
 H         3.561107        -0.569539         2.325716
 H         3.540700         2.459622         0.120952
 H         2.875555         0.189129        -2.488802
 H         2.149792        -2.179737        -1.052373
 H         3.729564        -2.158504        -0.108842
