19
Iteration:  2371charge 0 multiplicity 1
 C         0.109955         0.604714        -0.359904
 C         1.389297         0.080472         0.189842
 C         1.757992        -1.203174         1.066158
 C         2.729567        -0.388921         1.936773
 C         2.651637         0.671879         0.787246
 O         3.131652         1.992060         0.682004
 C         2.774109        -0.141114        -0.511074
 O         3.258380         0.606548        -1.661078
 C         2.640325        -1.603944        -0.249307
 H        -0.107627         1.471949         0.291398
 H         0.064057         1.055244        -1.367447
 H        -0.697511        -0.080077        -0.226506
 H         1.381841        -2.132530         1.584856
 H         2.200550         0.013570         2.913973
 H         3.837683        -0.776968         2.018975
 H         3.447829         2.136507        -0.309708
 H         2.851463         0.107327        -2.405185
 H         1.940361        -2.145365        -0.944824
 H         3.535668        -2.145327        -0.112855
