19
Iteration:  4399charge 0 multiplicity 1
 C         0.161061         0.868782        -0.237675
 C         1.419358         0.119321         0.166578
 C         1.812001        -1.193856         1.149443
 C         2.717019        -0.185481         1.938025
 C         2.740775         0.679301         0.733043
 O         3.195766         1.973078         0.615131
 C         2.740642        -0.208192        -0.568341
 O         3.088382         0.200636        -1.842030
 C         2.626287        -1.651355        -0.137962
 H        -0.675250         0.342159         0.143441
 H         0.113500         1.929781         0.236475
 H         0.031623         0.769228        -1.288438
 H         1.085477        -1.920899         1.550618
 H         2.002335         0.205782         2.618320
 H         3.689859        -0.705966         2.352058
 H         2.392350         2.434906         0.292298
 H         3.967306         0.647857        -1.774658
 H         1.959011        -2.214119        -0.895827
 H         3.611491        -2.108927        -0.042943
