19
Iteration:  2066
 C         0.131856         0.784271        -0.251295
 C         1.466315         0.098047         0.107284
 C         1.877954        -1.280353         0.927945
 C         2.620645        -0.471808         1.936692
 C         2.642788         0.616561         0.813086
 O         2.987570         1.981421         0.811987
 C         2.719420        -0.111241        -0.603565
 O         3.272629         0.568352        -1.631091
 C         2.788196        -1.604299        -0.276169
 H        -0.541723         0.111725         0.202844
 H        -0.077668         1.851768        -0.123128
 H        -0.217295         0.636982        -1.307762
 H         1.068290        -1.898869         1.270813
 H         2.026313        -0.134490         2.723443
 H         3.687948        -0.815285         2.202153
 H         3.383643         2.059109        -0.022762
 H         2.643647         0.528123        -2.417873
 H         2.438185        -2.192063        -1.125164
 H         3.788649        -2.001741        -0.047341
