19
Iteration:  2879
 C         0.013140         0.585172        -0.281748
 C         1.345643         0.093757         0.127947
 C         1.712957        -1.155251         0.997247
 C         2.669579        -0.339599         1.803626
 C         2.758241         0.719382         0.713303
 O         3.325263         1.943303         0.851765
 C         2.664042        -0.127922        -0.596954
 O         3.176662         0.546572        -1.758667
 C         2.801453        -1.667721        -0.074478
 H        -0.560304         0.671485         0.651103
 H        -0.032748         1.642466        -0.487249
 H        -0.624274         0.045757        -1.039035
 H         0.868059        -1.907824         1.298193
 H         2.057183         0.212099         2.639658
 H         3.454930        -0.875098         2.347902
 H         3.733837         2.318125        -0.048696
 H         2.605055         0.318881        -2.448545
 H         2.415801        -2.394391        -0.820460
 H         3.807156        -1.848718         0.239351
