19
Iteration:  1968charge 0 multiplicity 1
 C         0.041833         0.659760        -0.328879
 C         1.394848         0.159265         0.073888
 C         1.873285        -1.253407         0.927356
 C         2.715251        -0.405446         1.864885
 C         2.638199         0.616891         0.785942
 O         3.019225         1.939791         0.855313
 C         2.720014        -0.137978        -0.535264
 O         3.359208         0.639271        -1.529885
 C         2.745250        -1.629146        -0.317276
 H        -0.257711         1.626688         0.037563
 H        -0.193014         0.467520        -1.425644
 H        -0.802999         0.158410         0.115091
 H         0.998361        -1.737511         1.280015
 H         2.204311        -0.378369         2.770204
 H         3.794293        -0.877750         2.038289
 H         3.416972         2.054036         0.023535
 H         2.739275         0.904537        -2.357265
 H         2.177269        -2.086293        -1.041066
 H         3.658433        -2.197833        -0.195185
