19
Iteration:  2921charge 0 multiplicity 1
 C         0.033021         0.660414        -0.206308
 C         1.359038         0.132873         0.217119
 C         1.860329        -1.227199         0.964521
 C         2.647992        -0.352865         1.958515
 C         2.665289         0.703623         0.795588
 O         3.186544         2.049771         0.738188
 C         2.676806        -0.209458        -0.618255
 O         3.336453         0.482715        -1.686583
 C         2.676141        -1.612944        -0.346984
 H        -0.102191         1.403763         0.542935
 H         0.067487         1.083627        -1.197024
 H        -0.723746        -0.107198        -0.174508
 H         1.108279        -1.965685         1.513442
 H         1.974945         0.014611         2.843950
 H         3.598180        -0.707846         2.458617
 H         3.417954         2.108656        -0.218151
 H         2.913445         0.356024        -2.656695
 H         2.027494        -2.291459        -0.917779
 H         3.661788        -2.228727        -0.100639
