19
Iteration:  4839charge 0 multiplicity 1
 C         0.076307         0.898799        -0.138110
 C         1.381105         0.124325         0.149597
 C         1.861625        -1.070218         1.248924
 C         2.837253        -0.008042         1.918106
 C         2.761771         0.729850         0.536284
 O         3.294173         1.975690         0.443193
 C         2.624571        -0.334971        -0.514756
 O         3.070636         0.018973        -1.852994
 C         2.502514        -1.690149         0.072450
 H        -0.000268         1.929696         0.098411
 H        -0.046886         0.759865        -1.275181
 H        -0.781028         0.386150         0.330144
 H         1.162201        -1.556889         1.932166
 H         2.666140         0.628927         2.722750
 H         3.838146        -0.430702         2.005849
 H         2.866038         2.533922        -0.169849
 H         4.060161        -0.122903        -1.916459
 H         1.739814        -2.206441        -0.638242
 H         3.442550        -2.334001         0.271668
