19
Iteration:  2666
 C         0.130059         0.707625        -0.294988
 C         1.365773         0.168996         0.225041
 C         1.770949        -1.225582         1.049683
 C         2.785968        -0.327233         1.894172
 C         2.699554         0.636701         0.731118
 O         3.112812         2.050777         0.570170
 C         2.668192        -0.206464        -0.538905
 O         3.247024         0.480743        -1.588255
 C         2.642116        -1.670730        -0.193009
 H         0.023872         0.632982        -1.380956
 H        -0.775056         0.229163         0.112859
 H        -0.002579         1.709524         0.025624
 H         1.268737        -1.849788         1.745577
 H         2.466839        -0.034417         2.879656
 H         3.742589        -0.836931         2.087485
 H         3.562600         2.043078        -0.262302
 H         2.787463         0.332378        -2.413437
 H         2.124903        -2.305365        -0.862546
 H         3.618327        -2.106892        -0.029477
