19
Iteration:    33charge 0 multiplicity 1
 C         0.119273         0.573857        -0.579413
 C         1.398504         0.010024        -0.039892
 C         1.940103        -1.445186         0.343593
 C         2.534902        -0.937091         1.674198
 C         2.407926         0.414478         0.996765
 O         2.759191         1.651177         1.571219
 C         2.825339         0.218380        -0.550017
 O         3.334942         1.346641        -1.181593
 C         3.082890        -1.313108        -0.674155
 H        -0.557987        -0.294714        -0.508396
 H        -0.172849         1.447339         0.000511
 H         0.142799         0.902782        -1.593898
 H         1.259376        -2.352354         0.263901
 H         1.727527        -1.015553         2.468766
 H         3.531353        -1.329314         1.979697
 H         3.621467         2.030417         1.220389
 H         3.654404         1.201408        -2.087580
 H         2.928243        -1.805211        -1.615600
 H         3.965716        -1.676430        -0.288833
