19
Iteration:   371
 C         0.077160         0.589461        -0.472385
 C         1.363258         0.000263         0.019356
 C         1.903465        -1.479943         0.387826
 C         2.509976        -0.857597         1.775709
 C         2.557273         0.488544         0.951207
 O         2.718162         1.837833         1.372635
 C         2.796192         0.199640        -0.455576
 O         3.492593         1.042532        -1.317785
 C         3.051982        -1.333884        -0.615524
 H         0.070904         0.846023        -1.605761
 H        -0.818276        -0.013055        -0.104923
 H        -0.059480         1.526862        -0.050738
 H         1.355484        -2.361777         0.413565
 H         1.916393        -0.777117         2.623813
 H         3.396531        -1.304132         2.162442
 H         3.415380         2.242521         0.935515
 H         2.872561         1.103023        -2.184067
 H         2.715849        -1.590896        -1.548178
 H         3.974929        -1.713145        -0.487881
