19
Iteration:  3315charge 0 multiplicity 1
 C         0.047841         0.573109        -0.273835
 C         1.407650         0.075416         0.089994
 C         1.714300        -1.218715         0.825754
 C         2.608945        -0.375204         1.868678
 C         2.632425         0.650252         0.767722
 O         3.213912         1.894380         0.954762
 C         2.760576        -0.093868        -0.520566
 O         3.313825         0.603473        -1.673673
 C         2.758357        -1.497764        -0.291034
 H        -0.357358         1.395935         0.366031
 H        -0.188295         0.837110        -1.313285
 H        -0.622373        -0.255345        -0.086745
 H         0.996658        -1.954600         1.176790
 H         2.134324         0.082269         2.766718
 H         3.530844        -0.765832         2.288746
 H         3.561327         2.341590         0.118199
 H         2.526330         0.431564        -2.351658
 H         2.442799        -2.127273        -1.114047
 H         3.707368        -1.993714         0.145528
