19
Iteration:   414
 C         0.034287         0.655524        -0.369886
 C         1.442801        -0.059478        -0.146640
 C         1.908275        -1.446852         0.488876
 C         2.514637        -0.726125         1.777656
 C         2.556443         0.475178         0.857229
 O         2.684192         1.720649         1.356558
 C         2.892840         0.081469        -0.570168
 O         3.450675         1.188865        -1.229737
 C         3.022651        -1.437880        -0.582206
 H         0.098592         1.510070        -1.112845
 H        -0.840121        -0.019914        -0.573734
 H        -0.199329         1.178552         0.490187
 H         1.298123        -2.273320         0.479894
 H         1.761592        -0.646024         2.529613
 H         3.474470        -1.040273         2.272237
 H         3.207329         2.105875         0.619889
 H         3.363694         1.226116        -2.253332
 H         2.615499        -1.854387        -1.476111
 H         3.922940        -1.920711        -0.346829
