19
Iteration:    91
 C         0.145050         0.558431        -0.530904
 C         1.441905         0.040251        -0.069759
 C         1.803904        -1.398229         0.375819
 C         2.531629        -0.926547         1.662982
 C         2.455263         0.472359         0.970574
 O         2.709651         1.645637         1.592754
 C         2.890986         0.177484        -0.540664
 O         3.436661         1.307951        -1.227935
 C         3.098467        -1.395074        -0.655763
 H        -0.072328         0.236045        -1.488145
 H        -0.582902         0.006492         0.064444
 H        -0.022650         1.665441        -0.523993
 H         1.085155        -2.108434         0.333182
 H         2.177884        -1.001839         2.629512
 H         3.554786        -1.341895         1.706999
 H         2.803385         2.260432         0.878573
 H         2.823613         1.614160        -1.960852
 H         2.803618        -1.814211        -1.600958
 H         4.006906        -1.792987        -0.297046
