19
Iteration:  2445charge 0 multiplicity 1
 C         0.105904         0.727966        -0.224735
 C         1.456396         0.150707         0.142609
 C         1.806210        -1.193129         0.952722
 C         2.608607        -0.289685         1.972798
 C         2.721652         0.704600         0.814545
 O         3.148914         1.964166         0.800091
 C         2.671844        -0.183403        -0.634823
 O         3.150817         0.391426        -1.796250
 C         2.858672        -1.618968        -0.207233
 H        -0.825301         0.336376         0.337813
 H        -0.056626         1.864017        -0.119480
 H        -0.203007         0.303850        -1.218234
 H         1.042725        -1.808916         1.380757
 H         1.886137         0.122601         2.712304
 H         3.407236        -0.825875         2.350312
 H         3.768924         2.120720         0.018521
 H         2.358265         0.255219        -2.474086
 H         2.555491        -2.280691        -1.039748
 H         3.851816        -2.040257         0.288242
