19
Iteration:  2487charge 0 multiplicity 1
 C         0.063322         0.711625        -0.139260
 C         1.393738         0.124834         0.081932
 C         1.798453        -1.153666         1.002577
 C         2.701360        -0.306281         1.892866
 C         2.591198         0.660109         0.722462
 O         3.088167         1.988428         0.751854
 C         2.726268        -0.179842        -0.593702
 O         3.334484         0.459234        -1.748612
 C         2.742147        -1.728912        -0.174397
 H        -0.797087         0.151772         0.324689
 H         0.011977         1.637995         0.499240
 H        -0.221340         0.929305        -1.219509
 H         0.951697        -1.608842         1.435073
 H         2.077748         0.032840         2.702915
 H         3.872466        -0.425783         2.232437
 H         3.619878         2.043756        -0.134324
 H         2.855191         0.334145        -2.547741
 H         2.197698        -2.336200        -0.844423
 H         3.802007        -2.145051         0.076420
