19
Iteration:  4988charge 0 multiplicity 1
 C         0.178595         0.830446        -0.104447
 C         1.378161         0.121072         0.284331
 C         1.783194        -0.948036         1.285275
 C         2.901981         0.035791         1.916833
 C         2.778016         0.743038         0.505133
 O         3.279497         2.016796         0.260847
 C         2.595095        -0.375039        -0.516518
 O         3.088133        -0.004660        -1.801649
 C         2.508740        -1.741215         0.116340
 H         0.304163         0.914828        -1.243788
 H        -0.689346         0.149251         0.039795
 H        -0.069946         1.856950         0.232805
 H         1.148727        -1.483758         1.945037
 H         2.366167         0.594792         2.755935
 H         3.770859        -0.379481         2.368215
 H         3.561705         1.879581        -0.702863
 H         2.417650         0.342549        -2.468948
 H         1.766328        -2.362539        -0.440059
 H         3.388733        -2.398086         0.399127
