19
Iteration:  2103
 C         0.144991         0.700781        -0.303266
 C         1.353508         0.054733         0.108285
 C         1.871407        -1.309907         0.978945
 C         2.700451        -0.373532         1.827711
 C         2.640982         0.616297         0.743605
 O         3.005580         1.973794         0.802351
 C         2.752670        -0.106677        -0.511713
 O         3.336129         0.633178        -1.560318
 C         2.661202        -1.632442        -0.318434
 H        -0.616147        -0.126448        -0.152080
 H        -0.207927         1.641760         0.287490
 H         0.169633         0.844439        -1.364256
 H         1.131050        -1.987265         1.514259
 H         2.276789        -0.006025         2.853742
 H         3.802363        -0.739480         2.200340
 H         3.506502         2.199924         0.069332
 H         2.657587         0.725803        -2.355616
 H         2.041536        -2.181710        -1.017919
 H         3.598074        -2.157478        -0.115205
