19
Iteration:  2887
 C         0.005174         0.590643        -0.274164
 C         1.371563         0.079461         0.111161
 C         1.700293        -1.141355         0.997369
 C         2.636915        -0.323525         1.835481
 C         2.728212         0.671995         0.655146
 O         3.319513         1.930373         0.861132
 C         2.743825        -0.154458        -0.611953
 O         3.184563         0.529062        -1.700454
 C         2.771179        -1.583413        -0.138693
 H        -0.363442         0.763833         0.734876
 H        -0.087636         1.622018        -0.656977
 H        -0.753278        -0.062086        -0.654314
 H         1.033744        -2.015609         1.405790
 H         2.102388         0.382530         2.557490
 H         3.588523        -0.788948         2.253184
 H         3.573529         2.366490        -0.056546
 H         2.541391         0.269389        -2.401283
 H         2.347738        -2.243604        -0.888411
 H         3.801696        -2.003790         0.331219
