19
Iteration:  2808charge 0 multiplicity 1
 C         0.193322         0.756571        -0.323254
 C         1.442146         0.155291         0.194550
 C         1.779225        -1.195337         1.004839
 C         2.792142        -0.346246         1.872710
 C         2.700567         0.621576         0.789175
 O         3.015709         1.952151         0.685744
 C         2.699589        -0.182389        -0.571619
 O         3.219026         0.548372        -1.654243
 C         2.659168        -1.731301        -0.140978
 H        -0.660815         0.083837        -0.063009
 H        -0.121083         1.779692         0.042654
 H         0.168261         0.861085        -1.396722
 H         0.986843        -1.541283         1.597806
 H         2.489515         0.028100         2.865071
 H         3.883389        -0.757077         1.982709
 H         3.306828         2.144042        -0.236675
 H         2.555025         0.412254        -2.252250
 H         2.106256        -2.307288        -0.906457
 H         3.663723        -2.336274         0.050547
