19
Iteration:  3814charge 0 multiplicity 1
 C         0.140164         0.716363        -0.407107
 C         1.325695         0.091612         0.117749
 C         1.801485        -1.267262         0.954997
 C         2.744593        -0.320684         1.941974
 C         2.622565         0.628595         0.807307
 O         3.212626         1.909570         0.845875
 C         2.646733        -0.120027        -0.579427
 O         3.128759         0.614339        -1.623681
 C         2.775154        -1.671554        -0.231351
 H        -0.153397         0.245127        -1.365916
 H        -0.702717         0.897274         0.202992
 H         0.422936         1.764632        -0.673118
 H         0.976610        -1.876971         1.270944
 H         2.082702        -0.053208         2.798829
 H         3.826847        -0.486467         2.243516
 H         3.723270         1.953398         0.066735
 H         3.016190         0.086562        -2.365419
 H         2.238599        -2.228599        -1.009371
 H         3.753655        -2.054164         0.124323
