19
Iteration:  1670charge 0 multiplicity 1
 C         0.130538         0.647507        -0.411110
 C         1.356075         0.026394         0.130791
 C         1.807875        -1.301781         0.826214
 C         2.685738        -0.550698         1.767319
 C         2.600111         0.642002         0.881291
 O         2.989886         1.914408         0.929105
 C         2.700137         0.032904        -0.560069
 O         3.274464         0.764389        -1.519039
 C         2.863342        -1.562432        -0.282352
 H        -0.272207         1.436116         0.246449
 H         0.272575         1.037714        -1.428199
 H        -0.710682         0.008178        -0.382518
 H         1.076642        -2.119598         1.098861
 H         2.314355        -0.332055         2.737446
 H         3.596850        -1.168057         1.847626
 H         3.838045         2.017914         0.549467
 H         2.917340         0.690173        -2.350060
 H         2.492764        -2.213634        -1.107671
 H         3.840026        -2.100352         0.103498
