19
Iteration:  3573
 C         0.214381         0.719129        -0.394504
 C         1.446963         0.010322         0.147149
 C         1.809590        -1.253641         0.973372
 C         2.565637        -0.378563         1.862785
 C         2.707178         0.625116         0.738970
 O         3.045915         1.960182         0.957029
 C         2.761952        -0.114414        -0.590120
 O         3.137913         0.624383        -1.635898
 C         2.781244        -1.585039        -0.287524
 H         0.264323         1.818793        -0.167941
 H         0.066348         0.588786        -1.484294
 H        -0.702584         0.319476         0.139354
 H         1.124283        -2.179713         1.177574
 H         2.090678         0.165084         2.654912
 H         3.417634        -0.877542         2.412568
 H         3.971370         1.844724         0.675417
 H         2.749903         0.270330        -2.485196
 H         2.179516        -2.213573        -1.126087
 H         3.776836        -2.044881        -0.237996
