19
Iteration:  2153
 C         0.024848         0.614448        -0.294887
 C         1.353608         0.078298         0.150595
 C         1.834353        -1.267737         0.897176
 C         2.577751        -0.359942         1.849921
 C         2.650588         0.648575         0.755739
 O         3.197622         1.923775         0.909352
 C         2.737009        -0.093642        -0.566745
 O         3.227092         0.542015        -1.683686
 C         2.831089        -1.479337        -0.195197
 H        -0.519073        -0.145838        -0.909046
 H        -0.441986         0.878382         0.641249
 H         0.030189         1.684471        -0.793619
 H         1.174388        -2.071938         1.268038
 H         2.015390         0.122241         2.574804
 H         3.486560        -0.604080         2.260366
 H         3.609567         2.100906        -0.054458
 H         3.064644         0.217224        -2.514010
 H         2.245602        -1.897987        -1.119880
 H         3.758466        -2.109678        -0.025181
