19
Iteration:  1804
 C         0.085032         0.730695        -0.284623
 C         1.454902         0.091865         0.061892
 C         1.855390        -1.365529         0.883743
 C         2.655361        -0.361067         1.939195
 C         2.669906         0.561344         0.781770
 O         2.906902         1.929851         0.875586
 C         2.737291        -0.088284        -0.573786
 O         3.320889         0.752476        -1.528115
 C         2.788325        -1.664059        -0.414917
 H        -0.564231        -0.133051        -0.535217
 H        -0.362810         1.336075         0.614578
 H         0.162945         1.278666        -1.200663
 H         1.254327        -2.272691         1.152603
 H         1.927641        -0.125224         2.659445
 H         3.572481        -0.654154         2.367257
 H         3.771567         2.073459         0.634527
 H         3.062363         0.536875        -2.364364
 H         2.160222        -2.126504        -1.205677
 H         3.741420        -2.368317        -0.304821
