19
Iteration:  1290
 C         0.055580         0.686623        -0.394359
 C         1.408697         0.034705        -0.020486
 C         1.815740        -1.272472         0.695302
 C         2.657166        -0.638402         1.890223
 C         2.661891         0.535461         0.828017
 O         2.882371         1.860868         1.151298
 C         2.842568        -0.049234        -0.505983
 O         3.279678         0.870373        -1.558139
 C         2.900605        -1.543724        -0.385194
 H        -0.312145         1.253264         0.502968
 H         0.136477         1.317479        -1.344992
 H        -0.585271        -0.092459        -0.734899
 H         1.083797        -1.989276         0.875702
 H         2.059600        -0.088423         2.711598
 H         3.632359        -1.061149         2.276246
 H         3.591266         2.210751         0.602724
 H         2.656620         0.896551        -2.256774
 H         2.554738        -1.974243        -1.343935
 H         3.807619        -1.892453         0.034212
