19
Iteration:  4264charge 0 multiplicity 1
 C         0.077408         0.705318        -0.254932
 C         1.367159         0.131044         0.144645
 C         1.783608        -1.158480         1.016261
 C         2.750973        -0.227192         1.929977
 C         2.635230         0.709934         0.717363
 O         3.267893         1.995672         0.675874
 C         2.607543        -0.210546        -0.560286
 O         3.219181         0.298449        -1.652479
 C         2.702004        -1.637911        -0.169894
 H         0.246609         1.810869        -0.306684
 H        -0.078981         0.387269        -1.289494
 H        -0.861952         0.668461         0.308410
 H         1.144209        -1.864899         1.521346
 H         2.122170         0.126412         2.814224
 H         3.748560        -0.786161         2.076769
 H         3.456783         2.169194        -0.264494
 H         2.675055         0.720491        -2.334717
 H         2.259410        -2.414067        -0.784436
 H         3.738729        -1.962557         0.098664
