19
Iteration:   805
 C         0.106486         0.502838        -0.406664
 C         1.410624         0.033953         0.059441
 C         1.881353        -1.404858         0.650548
 C         2.568161        -0.562752         1.792223
 C         2.517414         0.597546         0.910621
 O         2.885498         1.842062         1.265697
 C         2.790223         0.035312        -0.546873
 O         3.469721         0.962153        -1.373798
 C         2.836780        -1.489184        -0.630412
 H        -0.330859         1.149998         0.325598
 H         0.250994         0.982299        -1.317974
 H        -0.666928        -0.274514        -0.602643
 H         1.151967        -2.165287         0.860656
 H         1.862963        -0.395395         2.563604
 H         3.543646        -0.901552         2.092964
 H         3.240845         2.273217         0.506466
 H         3.148246         1.059868        -2.252158
 H         2.284021        -1.719393        -1.576679
 H         3.828968        -2.109677        -0.698731
