19
Iteration:   862
 C         0.123233         0.595325        -0.354993
 C         1.430057         0.067407         0.055732
 C         1.833795        -1.423594         0.578677
 C         2.484342        -0.679185         1.822389
 C         2.536765         0.571800         0.893683
 O         2.912253         1.867090         1.153970
 C         2.811440         0.051517        -0.556063
 O         3.358082         0.959601        -1.430994
 C         2.964900        -1.456031        -0.460568
 H        -0.739718         0.238020         0.275589
 H        -0.012479         1.689756        -0.173807
 H        -0.109124         0.373456        -1.394768
 H         1.277874        -2.338653         0.529113
 H         1.743764        -0.578867         2.702468
 H         3.390725        -1.176989         2.315911
 H         3.518988         2.038804         0.363760
 H         3.057456         0.875195        -2.331362
 H         2.671028        -1.943621        -1.470350
 H         3.987028        -1.805717        -0.021160
