19
Iteration:  2249charge 0 multiplicity 1
 C         0.099323         0.796132        -0.301379
 C         1.390181         0.009874         0.190175
 C         1.793501        -1.271383         0.995776
 C         2.764616        -0.298134         1.859729
 C         2.671632         0.628252         0.726359
 O         2.986569         1.952938         0.739881
 C         2.681458        -0.141408        -0.595045
 O         3.277988         0.560642        -1.534802
 C         2.788267        -1.621931        -0.292345
 H         0.428749         1.383036        -1.161448
 H        -0.725145         0.164868        -0.469888
 H        -0.320466         1.365340         0.452632
 H         1.338245        -2.095090         1.497155
 H         2.085049        -0.001508         2.752009
 H         3.717666        -0.818481         2.204474
 H         3.542326         2.125946         0.033700
 H         3.028526         0.184705        -2.476736
 H         2.121462        -2.196996        -0.946490
 H         3.607857        -2.228871        -0.071499
