19
Iteration:  4790charge 0 multiplicity 1
 C         0.131759         0.855366        -0.178370
 C         1.420554         0.097229         0.188101
 C         1.740622        -1.005434         1.172259
 C         2.742687        -0.098257         1.999488
 C         2.806940         0.725038         0.640064
 O         3.326654         1.951103         0.361072
 C         2.708218        -0.287115        -0.496804
 O         2.938999        -0.010130        -1.925455
 C         2.659058        -1.645173         0.052547
 H         0.368289         1.428230        -1.119236
 H        -0.737904         0.227351        -0.316794
 H        -0.041782         1.646494         0.581015
 H         1.030602        -1.677992         1.692757
 H         2.173538         0.603567         2.749891
 H         3.702378        -0.484452         2.467344
 H         2.799456         2.579037         0.966340
 H         3.729929         0.553798        -2.174159
 H         1.964258        -2.177893        -0.558437
 H         3.569554        -2.163677         0.277589
