19
Iteration:  2584
 C         0.078496         0.709541        -0.259812
 C         1.427901         0.160061         0.088918
 C         1.761175        -1.233450         1.032119
 C         2.697450        -0.289386         1.909431
 C         2.665539         0.697495         0.725119
 O         3.233826         1.981523         0.800891
 C         2.736571        -0.168644        -0.569413
 O         3.102256         0.385951        -1.837213
 C         2.810326        -1.618254        -0.045788
 H        -0.263882         0.412518        -1.238460
 H        -0.546165         0.321618         0.493013
 H         0.043146         1.822275        -0.311655
 H         0.887403        -1.695578         1.440840
 H         2.037283         0.062910         2.631475
 H         3.621326        -0.803140         2.194936
 H         3.586651         2.123204        -0.034686
 H         2.387878         0.292359        -2.395448
 H         2.276651        -2.156280        -0.826948
 H         3.795925        -2.036207         0.149980
