19
Iteration:   436charge 0 multiplicity 1
 C         0.132314         0.582798        -0.304865
 C         1.421874        -0.063429         0.006941
 C         1.909740        -1.512419         0.452520
 C         2.365990        -0.687748         1.718855
 C         2.525991         0.521936         0.838956
 O         2.759769         1.789358         1.379636
 C         2.816918         0.065866        -0.554894
 O         3.499653         1.150923        -1.268209
 C         3.058321        -1.406077        -0.655904
 H         0.415041         1.617943        -0.735807
 H        -0.498063        -0.012052        -1.036849
 H        -0.441574         0.831997         0.521682
 H         1.350113        -2.354648         0.535772
 H         1.563295        -0.552491         2.431273
 H         3.311032        -1.005879         2.262829
 H         2.875978         2.346861         0.579873
 H         3.172519         1.050349        -2.177500
 H         2.629122        -1.761719        -1.587033
 H         4.025843        -1.895276        -0.477951
