19
Iteration:  4499charge 0 multiplicity 1
 C         0.026956         0.671964        -0.178963
 C         1.474266         0.201457         0.146281
 C         1.707028        -1.067020         1.061248
 C         2.594718        -0.209565         1.976267
 C         2.772290         0.634881         0.731646
 O         3.441638         1.938914         0.439122
 C         2.725439        -0.191596        -0.546435
 O         3.069520         0.302312        -1.770127
 C         2.623349        -1.706064        -0.079515
 H        -0.069607         0.526696        -1.231033
 H        -0.571671        -0.080424         0.364711
 H        -0.253619         1.706260         0.033895
 H         0.864895        -1.531354         1.638188
 H         2.035244         0.336144         2.727208
 H         3.647713        -0.524713         2.421636
 H         2.794072         2.712520         0.406176
 H         3.930658         0.795504        -1.667622
 H         2.137653        -2.373236        -0.828549
 H         3.551478        -2.133622         0.175889
