19
Iteration:  1105
 C         0.185852         0.668039        -0.390344
 C         1.357163         0.026965         0.121844
 C         1.929522        -1.409405         0.671029
 C         2.620584        -0.662976         1.775881
 C         2.592819         0.561314         0.866509
 O         2.813540         1.918430         1.146509
 C         2.694365         0.026775        -0.558567
 O         3.369470         0.826858        -1.426036
 C         2.848916        -1.440979        -0.494924
 H         0.447301         1.096549        -1.389273
 H        -0.751845         0.041572        -0.277409
 H        -0.183884         1.536344         0.184226
 H         1.303930        -2.230547         0.886104
 H         1.901755        -0.306996         2.532197
 H         3.563320        -0.962104         2.078234
 H         3.667906         2.220463         0.732231
 H         3.528017         0.454877        -2.372111
 H         2.257055        -1.826012        -1.374367
 H         3.905621        -1.866988        -0.314516
