19
Iteration:   115
 C         0.051803         0.624250        -0.526989
 C         1.366227         0.010130        -0.067208
 C         1.938050        -1.469150         0.347460
 C         2.556633        -0.854786         1.643079
 C         2.521824         0.479395         0.940449
 O         2.675959         1.658620         1.543155
 C         2.821526         0.189374        -0.490329
 O         3.458143         1.199997        -1.173315
 C         3.099476        -1.355787        -0.678771
 H         0.011438         0.979721        -1.574870
 H        -0.749341        -0.144994        -0.422460
 H        -0.170216         1.562023         0.099921
 H         1.317488        -2.463174         0.428386
 H         1.920806        -0.896682         2.538588
 H         3.514574        -1.135055         2.045843
 H         3.292682         2.149331         0.944074
 H         2.952883         1.594847        -1.819828
 H         2.700501        -1.716118        -1.674197
 H         4.119468        -1.828238        -0.372060
