19
Iteration:  4639charge 0 multiplicity 1
 C         0.105795         0.883693        -0.169948
 C         1.384247         0.159682         0.199302
 C         1.825281        -1.066943         1.065956
 C         2.718021        -0.193057         1.965048
 C         2.703480         0.728101         0.665742
 O         3.292500         1.952656         0.523747
 C         2.643470        -0.267796        -0.556508
 O         3.026197         0.117839        -1.866210
 C         2.726969        -1.656553         0.010316
 H        -0.322566         1.374819         0.725214
 H         0.371367         1.515146        -1.132331
 H        -0.675246         0.196072        -0.586456
 H         1.152120        -1.628135         1.754392
 H         2.175884         0.212674         2.760679
 H         3.583848        -0.605338         2.440333
 H         2.757168         2.570493        -0.057417
 H         3.996379        -0.044455        -2.008115
 H         2.145665        -2.364263        -0.709201
 H         3.754010        -2.098747         0.208525
