19
Iteration:  2217
 C         0.042210         0.727685        -0.321397
 C         1.369957         0.106352         0.158026
 C         1.755961        -1.302652         0.982273
 C         2.748729        -0.356422         1.911026
 C         2.635473         0.657760         0.829662
 O         3.047378         1.966276         0.780127
 C         2.746939        -0.131449        -0.552749
 O         3.289517         0.538873        -1.650259
 C         2.823957        -1.600324        -0.285167
 H        -0.131089         0.927741        -1.429742
 H        -0.693093        -0.016707        -0.156514
 H        -0.162235         1.730944         0.073393
 H         1.057311        -2.025797         1.388039
 H         2.391314        -0.064070         2.937020
 H         3.732189        -0.816682         2.077284
 H         3.621978         2.078433        -0.099609
 H         2.742092         0.533468        -2.373873
 H         2.208624        -2.145983        -1.069346
 H         3.692431        -2.179175         0.011868
