19
Iteration:  1963
 C         0.008960         0.669999        -0.361858
 C         1.382622         0.178841         0.057340
 C         1.855802        -1.282093         0.930474
 C         2.769204        -0.395729         1.891273
 C         2.622834         0.585390         0.789800
 O         3.017591         1.908112         0.860176
 C         2.694035        -0.122744        -0.564659
 O         3.363911         0.647239        -1.515854
 C         2.756892        -1.626912        -0.311694
 H        -0.168873         1.771822        -0.168702
 H        -0.190893         0.523691        -1.402056
 H        -0.752196         0.103802         0.279226
 H         1.023918        -1.803712         1.504458
 H         2.197554        -0.249552         2.884456
 H         3.827732        -0.659554         2.140389
 H         3.523268         2.025781        -0.049906
 H         2.756972         0.837658        -2.217274
 H         2.169549        -2.071159        -1.219083
 H         3.756216        -2.131012        -0.329535
