19
Iteration:  2815charge 0 multiplicity 1
 C         0.212651         0.751488        -0.340480
 C         1.412161         0.184007         0.243041
 C         1.761664        -1.228125         1.004592
 C         2.843716        -0.335846         1.903586
 C         2.662324         0.661997         0.749547
 O         3.047190         1.984564         0.689710
 C         2.718792        -0.193701        -0.536766
 O         3.216308         0.550824        -1.661454
 C         2.658078        -1.775259        -0.168883
 H        -0.641693         0.086125        -0.013634
 H        -0.075923         1.716530         0.124010
 H         0.184940         0.672542        -1.479977
 H         0.950740        -1.851592         1.444032
 H         2.285984         0.082546         2.716736
 H         3.746224        -0.861783         2.093018
 H         3.329003         2.166137        -0.302693
 H         2.505442         0.539105        -2.326886
 H         1.966162        -2.336800        -0.877478
 H         3.632073        -2.237015         0.009910
