19
Iteration:  3263charge 0 multiplicity 1
 C         0.012366         0.645826        -0.180574
 C         1.399775         0.030886         0.073855
 C         1.705300        -1.217761         0.876867
 C         2.646917        -0.395696         1.865141
 C         2.665236         0.631267         0.802690
 O         3.040340         1.913662         0.783390
 C         2.709174        -0.099131        -0.535720
 O         3.428148         0.606736        -1.607788
 C         2.798137        -1.565370        -0.295981
 H        -0.403137         0.849940         0.860768
 H         0.268065         1.694858        -0.506368
 H        -0.614978         0.068825        -0.967226
 H         1.008144        -1.867444         1.282113
 H         2.174602         0.115255         2.771760
 H         3.653170        -0.759710         2.099834
 H         3.706039         2.035156         0.158642
 H         2.773493         0.648812        -2.365762
 H         2.290553        -2.041628        -1.120400
 H         3.734985        -2.118757        -0.205706
