19
Iteration:  2010
 C         0.041106         0.697721        -0.249045
 C         1.392197         0.080245         0.122313
 C         1.880142        -1.206606         0.852132
 C         2.551758        -0.400769         1.915455
 C         2.684104         0.630229         0.781312
 O         3.052299         1.927221         0.919730
 C         2.760041        -0.094342        -0.600974
 O         3.273978         0.581840        -1.661405
 C         2.828907        -1.575879        -0.316064
 H        -0.348855         1.322519         0.560201
 H         0.160542         1.295095        -1.115936
 H        -0.702204        -0.137899        -0.403192
 H         1.234241        -2.036766         1.090252
 H         1.950946         0.011867         2.704554
 H         3.518669        -0.874484         2.429728
 H         3.637744         2.196155         0.145947
 H         2.965966         0.115055        -2.374375
 H         2.237738        -2.227913        -0.984710
 H         3.794208        -2.056856        -0.152626
