19
Iteration:   541
 C         0.260385         0.584474        -0.465591
 C         1.436677         0.005746         0.109649
 C         1.796148        -1.413419         0.492350
 C         2.553094        -0.802125         1.669834
 C         2.596881         0.559673         0.956996
 O         2.689949         1.864133         1.361175
 C         2.830546         0.083112        -0.542335
 O         3.344760         1.040236        -1.389808
 C         2.990891        -1.395978        -0.543269
 H        -0.532592         0.808360         0.214508
 H         0.508115         1.545589        -0.861252
 H        -0.126250        -0.128217        -1.320770
 H         0.981728        -2.228217         0.773754
 H         1.974681        -0.604680         2.595552
 H         3.445851        -1.352786         1.855900
 H         3.599017         2.098185         1.242278
 H         2.855044         0.853862        -2.314249
 H         2.566224        -1.823701        -1.429113
 H         3.916321        -1.769826        -0.314660
