19
Iteration:  3831charge 0 multiplicity 1
 C         0.125600         0.714621        -0.382219
 C         1.386156         0.115390         0.266146
 C         1.780206        -1.205337         0.934423
 C         2.584967        -0.374766         1.883612
 C         2.692062         0.609602         0.780439
 O         3.232240         1.943901         0.740098
 C         2.681829        -0.179977        -0.552730
 O         3.121075         0.645677        -1.624754
 C         2.771417        -1.614986        -0.215556
 H        -0.066856         0.302689        -1.382879
 H        -0.737887         0.320039         0.219340
 H         0.115656         1.837265        -0.410782
 H         1.153960        -2.053201         1.338867
 H         2.075573         0.010198         2.764382
 H         3.370421        -0.993245         2.296169
 H         3.907848         1.932683         0.079111
 H         3.295191         0.107194        -2.324240
 H         2.468635        -2.376053        -0.931541
 H         3.819742        -1.971804         0.030721
