19
Iteration:   931
 C         0.029948         0.745672        -0.419088
 C         1.416876         0.086686         0.053116
 C         1.829588        -1.447766         0.572505
 C         2.608435        -0.747011         1.841191
 C         2.609952         0.487408         0.883634
 O         2.786093         1.975667         1.228528
 C         2.808959        -0.010549        -0.552921
 O         3.382100         0.865145        -1.479816
 C         3.019628        -1.458610        -0.457472
 H        -0.797260         0.031812        -0.392384
 H        -0.390743         1.479871         0.351681
 H         0.097884         1.176748        -1.431371
 H         1.207329        -2.329305         0.736264
 H         2.221910        -0.384724         2.855484
 H         3.696949        -1.173010         2.136652
 H         3.203730         2.289853         0.488241
 H         2.950620         0.656524        -2.254965
 H         2.604034        -1.861954        -1.434444
 H         3.957838        -1.887667         0.021571
