19
Iteration:  2476
 C         0.051569         0.722797        -0.107513
 C         1.376729         0.016976         0.089136
 C         1.793678        -1.210097         1.007566
 C         2.601496        -0.188328         1.908813
 C         2.646964         0.695551         0.717651
 O         3.141190         2.000084         0.790461
 C         2.741858        -0.177785        -0.610573
 O         3.299761         0.423651        -1.783949
 C         2.780687        -1.654386        -0.228442
 H        -0.743295         0.056110         0.302531
 H         0.086677         1.781500         0.242517
 H        -0.107717         0.830500        -1.237594
 H         1.138515        -1.921282         1.443043
 H         2.101520         0.171151         2.788598
 H         3.634545        -0.732247         2.285337
 H         3.757578         2.117514         0.086243
 H         2.654232         0.305837        -2.430193
 H         2.225903        -2.178572        -0.968062
 H         3.611862        -2.352650         0.149239
