19
Iteration:   500
 C         0.119480         0.573223        -0.510349
 C         1.403857         0.044509        -0.000833
 C         1.955421        -1.395580         0.601875
 C         2.513958        -0.679434         1.767103
 C         2.515803         0.542929         0.937814
 O         2.749976         1.803781         1.422857
 C         2.782340         0.067193        -0.609292
 O         3.417975         1.030745        -1.344779
 C         2.988599        -1.465072        -0.688501
 H        -0.179939         1.414678         0.165190
 H         0.157691         1.037526        -1.500081
 H        -0.674037        -0.188213        -0.451947
 H         1.295124        -2.178878         0.712757
 H         1.796325        -0.767967         2.598396
 H         3.560664        -1.012384         2.100477
 H         3.715061         1.933008         1.641238
 H         3.007337         1.239780        -2.129933
 H         2.488594        -1.868182        -1.656152
 H         4.112734        -1.892028        -0.589109
