19
Iteration:  2411
 C         0.122837         0.733078        -0.363584
 C         1.360384         0.045864         0.167916
 C         1.802775        -1.220357         1.017750
 C         2.761463        -0.280107         1.845601
 C         2.710927         0.645272         0.706930
 O         3.119503         1.969622         0.787062
 C         2.717341        -0.160306        -0.520537
 O         3.144004         0.496447        -1.650457
 C         2.721223        -1.657677        -0.153716
 H        -0.506516         0.986223         0.540832
 H         0.293767         1.637308        -1.034948
 H        -0.409098         0.089177        -1.137061
 H         1.296884        -1.847882         1.685044
 H         2.312481         0.089873         2.738711
 H         3.532759        -0.875578         2.149455
 H         3.565592         2.196359        -0.004876
 H         2.535243         0.540276        -2.480494
 H         2.356957        -2.082067        -1.075297
 H         3.767878        -2.148583         0.124191
