19
Iteration:  4804charge 0 multiplicity 1
 C        -0.189690        -0.236491         0.187552
 C         1.302569         0.030947        -0.024930
 C         2.123335        -0.004153        -1.340272
 C         3.232012         0.700064        -0.620494
 C         3.720263        -0.463551         0.394659
 C         2.381305        -0.174505         1.035865
 O         2.018026        -0.351501         2.403825
 C         2.254995         1.221845         0.471780
 O         2.157837         2.595528         0.903394
 H        -0.610997        -1.099533         0.692260
 H        -0.603597         0.735637         0.553006
 H        -0.635059        -0.252530        -0.824186
 H         2.148685        -1.038535        -1.677141
 H         1.648353         0.712515        -2.113897
 H         3.842342         1.310268        -1.334904
 H         3.943003        -1.497589         0.095912
 H         4.568643        -0.079563         0.993151
 H         1.881058        -1.293920         2.587990
 H         1.325348         2.662616         1.463548
