19
Iteration:  2525
 C         0.052764        -0.559848         0.710139
 C         1.329103        -0.163846         0.031234
 C         2.237468        -0.884967        -0.861278
 C         3.417324         0.132773        -0.468919
 C         3.735919        -0.112966         1.023799
 C         2.298788         0.390625         1.190520
 O         1.669616         0.656575         2.386567
 C         2.215541         1.128722        -0.057226
 O         2.020532         2.475860        -0.339438
 H         0.315811        -1.537496         1.088093
 H        -0.109835         0.047449         1.591694
 H        -0.724552        -0.443930         0.020072
 H         2.553591        -1.928571        -0.846432
 H         1.891345        -0.720410        -1.923746
 H         4.126734         0.594327        -1.120780
 H         3.868924        -1.113347         1.402851
 H         4.384628         0.775082         1.480549
 H         1.746028         1.620353         2.548741
 H         1.658405         2.391865        -1.249900
