19
Iteration:  4670
 C        -0.163972         0.224891         0.203517
 C         1.332364         0.000672        -0.068007
 C         2.118974        -0.114435        -1.347347
 C         3.331214         0.609471        -0.586644
 C         3.754910        -0.384652         0.451560
 C         2.425154        -0.156320         1.149617
 O         2.148974        -0.443366         2.466081
 C         2.287075         1.140300         0.399368
 O         1.722603         2.441861         0.722279
 H        -0.416540         1.282311         0.054067
 H        -0.832745        -0.338458        -0.451890
 H        -0.266798         0.010529         1.267065
 H         2.389681        -1.105181        -1.648151
 H         1.761875         0.274701        -2.306929
 H         3.951438         1.269549        -1.154624
 H         3.954917        -1.378474         0.151012
 H         4.559375        -0.072392         1.179629
 H         2.166079        -1.414936         2.398209
 H         1.961284         2.600523         1.667423
