19
Iteration:  3204charge 0 multiplicity 1
 C        -0.043768        -0.305641         0.536962
 C         1.367332        -0.185312         0.078415
 C         2.261392        -0.834568        -1.073456
 C         3.330410         0.212867        -0.655615
 C         3.754673        -0.151827         0.846528
 C         2.368708         0.294685         1.199644
 O         1.978479         0.549377         2.483173
 C         2.210079         1.093448         0.009242
 O         1.821044         2.415220         0.115313
 H        -0.864047         0.279194        -0.024996
 H        -0.444678        -1.373202         0.542431
 H        -0.167829        -0.190873         1.626765
 H         2.385308        -1.983598        -1.062511
 H         1.947078        -0.628403        -2.118887
 H         4.032121         0.559548        -1.395154
 H         4.026585        -1.183816         1.191461
 H         4.525958         0.473220         1.189340
 H         1.256385         1.201012         2.490917
 H         1.731838         2.894718        -0.734084
