19
Iteration:   251
 C        -0.019830        -0.458389         0.483707
 C         1.365118        -0.152113         0.028930
 C         2.371898        -0.941367        -0.820083
 C         3.407712         0.037944        -0.457835
 C         3.589690        -0.255523         1.075879
 C         2.240449         0.309237         1.188757
 O         1.783659         0.968061         2.326759
 C         2.233209         1.114735        -0.111904
 O         2.023089         2.458562        -0.141696
 H        -0.329785         0.463087         1.052155
 H        -0.813080        -0.608355        -0.318862
 H        -0.089010        -1.337370         1.183363
 H         2.614790        -1.945396        -0.454018
 H         2.054504        -1.054045        -1.791454
 H         4.240390         0.391749        -0.998215
 H         3.945733        -1.310832         1.467519
 H         4.341848         0.479659         1.382130
 H         0.882190         0.609937         2.503176
 H         2.188330         2.615606        -1.069452
