19
Iteration:  3122charge 0 multiplicity 1
 C        -0.165647        -0.427870         0.330345
 C         1.291035        -0.178390         0.157083
 C         2.224871        -0.825839        -0.952379
 C         3.324334         0.275388        -0.539834
 C         3.769283        -0.162524         0.874961
 C         2.333688         0.263405         1.309454
 O         2.070510         0.435971         2.633500
 C         2.240764         1.202474        -0.009606
 O         1.763028         2.507967        -0.270016
 H        -0.592197         0.439582         0.740031
 H        -0.620598        -0.613965        -0.632920
 H        -0.429396        -1.234157         1.096503
 H         2.546607        -1.840085        -0.820174
 H         1.782844        -0.625732        -1.927975
 H         4.108529         0.541565        -1.316166
 H         4.139868        -1.180581         1.052610
 H         4.507853         0.759024         1.210911
 H         2.876694         0.666603         3.100451
 H         2.315191         3.189498         0.211786
