19
Iteration:  4974charge 0 multiplicity 1
 C        -0.100958        -0.331954         0.316884
 C         1.304303         0.215655        -0.114173
 C         2.080072         0.105243        -1.460056
 C         3.221128         0.737628        -0.603074
 C         3.702177        -0.448531         0.264331
 C         2.401201        -0.105608         1.041811
 O         1.857649        -0.343703         2.309423
 C         2.269609         1.198977         0.490029
 O         2.207572         2.431197         1.061194
 H        -0.692680        -0.780396        -0.527439
 H         0.058257        -0.967597         1.175032
 H        -0.743530         0.460226         0.747421
 H         2.207671        -0.866664        -1.963805
 H         1.731199         0.755275        -2.192295
 H         3.954611         1.388304        -1.198203
 H         3.822651        -1.488666        -0.047112
 H         4.591206        -0.411134         0.929373
 H         1.666577        -1.299584         2.474084
 H         2.039594         2.312203         2.039094
