19
Iteration:   663
 C        -0.030371        -0.187940         0.389486
 C         1.440415        -0.190415         0.100080
 C         2.498851        -0.971671        -0.768755
 C         3.437333         0.125277        -0.412651
 C         3.707067        -0.026229         1.081749
 C         2.225613         0.283208         1.296230
 O         1.661238         0.680109         2.567839
 C         2.176913         1.101297        -0.082473
 O         1.883920         2.316915        -0.616280
 H        -0.083388         0.332757         1.355576
 H        -0.673421         0.445813        -0.234133
 H        -0.493885        -1.191937         0.416840
 H         2.725683        -2.023590        -0.343820
 H         2.314549        -1.001165        -1.891743
 H         4.207271         0.195276        -1.223513
 H         4.179546        -0.928640         1.431655
 H         4.343784         0.832234         1.281171
 H         1.465157        -0.153551         3.123713
 H         2.014478         2.908207         0.170630
