19
Iteration:    31charge 0 multiplicity 1
 C        -0.106941        -0.663499         0.264930
 C         1.325971        -0.255687         0.162239
 C         2.203486        -0.900350        -0.765810
 C         3.371297         0.105908        -0.459998
 C         3.783735        -0.075686         1.010231
 C         2.267247         0.421036         1.277039
 O         1.726610         0.917388         2.520154
 C         2.221848         1.104064        -0.047682
 O         2.255810         2.408921        -0.341573
 H        -0.661396         0.234378         0.525776
 H        -0.386207        -0.719567        -0.787333
 H        -0.492684        -1.460346         0.890924
 H         2.454533        -1.949030        -0.243263
 H         1.953535        -0.938314        -1.823588
 H         4.037258         0.420061        -1.334481
 H         4.102583        -1.067620         1.355368
 H         4.351293         0.836897         1.192652
 H         0.741773         0.648850         2.476879
 H         1.595734         2.922732         0.168802
