19
Iteration:  4942charge 0 multiplicity 1
 C        -0.106643        -0.296691         0.202699
 C         1.305908         0.157322        -0.006349
 C         2.032693         0.075739        -1.410828
 C         3.234112         0.668644        -0.628825
 C         3.685784        -0.408798         0.318624
 C         2.391939        -0.091180         1.063855
 O         1.931011        -0.474608         2.339710
 C         2.251161         1.283746         0.506644
 O         2.270149         2.515617         1.018851
 H        -0.888434        -0.006447        -0.550876
 H        -0.129333        -1.398819         0.229442
 H        -0.474361         0.058022         1.184620
 H         2.205291        -0.910803        -1.921140
 H         1.598677         0.832516        -1.978841
 H         3.851277         1.293835        -1.360301
 H         3.769538        -1.477263         0.023360
 H         4.467709        -0.092958         1.099547
 H         1.693698        -1.426274         2.382058
 H         1.367676         2.761038         1.208083
