19
Iteration:  4159
 C        -0.065430        -0.200289         0.413281
 C         1.419309        -0.004118         0.017019
 C         2.169807        -0.307593        -1.260313
 C         3.323828         0.450392        -0.685911
 C         3.846125        -0.414432         0.633031
 C         2.442666        -0.022175         1.200398
 O         1.885563        -0.036220         2.457915
 C         2.211113         1.185195         0.400067
 O         1.759915         2.580360         0.323467
 H        -0.335758         0.282919         1.337372
 H        -0.661799         0.309903        -0.334677
 H        -0.419521        -1.277570         0.508198
 H         2.229474        -1.368670        -1.611297
 H         1.774354         0.399781        -2.028066
 H         4.014937         0.887808        -1.483072
 H         3.965093        -1.512439         0.545561
 H         4.660201         0.077676         1.165914
 H         2.114529        -0.975912         2.625507
 H         2.357590         3.185704         0.747637
