19
Iteration:  2141charge 0 multiplicity 1
 C        -0.050929        -0.487520         0.621347
 C         1.411142        -0.130127         0.241825
 C         2.225871        -0.963402        -0.691799
 C         3.401439         0.034199        -0.562419
 C         3.848532         0.029372         0.982000
 C         2.391003         0.459496         1.291888
 O         1.749844         0.691352         2.460356
 C         2.188280         1.115346        -0.061429
 O         1.861255         2.413019        -0.592128
 H        -0.683800         0.419551         0.577766
 H        -0.418280        -1.194964        -0.135897
 H        -0.119815        -0.942538         1.582859
 H         2.498116        -1.973389        -0.365732
 H         1.846718        -0.906762        -1.739119
 H         3.971842         0.148252        -1.504825
 H         4.140716        -1.119667         1.292197
 H         4.575809         0.611578         1.469165
 H         2.163744         1.255219         3.112248
 H         1.460430         2.321713        -1.474208
