19
Iteration:  3662charge 0 multiplicity 1
 C        -0.114840        -0.378313         0.259216
 C         1.345174        -0.110984         0.068369
 C         2.082841        -0.588967        -1.067646
 C         3.320904         0.364672        -0.673021
 C         3.789082        -0.207305         0.849888
 C         2.391464         0.203929         1.275798
 O         2.038754         0.222656         2.607029
 C         2.170447         1.158325         0.167095
 O         1.956317         2.587636         0.060975
 H        -0.274197        -1.399905         0.414368
 H        -0.574611         0.176265         1.137660
 H        -0.598524         0.105554        -0.535766
 H         2.382335        -1.624789        -1.022723
 H         1.709466        -0.354565        -2.060344
 H         4.065354         0.941753        -1.294682
 H         3.910094        -1.267613         0.884300
 H         4.707713         0.266381         1.448417
 H         1.972810        -0.711372         2.857183
 H         1.167188         2.579604        -0.487562
