19
Iteration:  4719charge 0 multiplicity 1
 C        -0.104109        -0.159886         0.306510
 C         1.345873         0.180454        -0.127124
 C         2.137184        -0.060330        -1.441902
 C         3.270936         0.622218        -0.631230
 C         3.784759        -0.431918         0.403360
 C         2.432911        -0.080123         1.162285
 O         1.872728        -0.280855         2.393615
 C         2.234663         1.194456         0.429716
 O         1.991332         2.428719         0.899818
 H        -0.681394        -0.430216        -0.580436
 H        -0.099871        -1.166542         0.774289
 H        -0.563812         0.590628         0.963454
 H         2.196509        -1.107283        -1.858024
 H         1.629501         0.387935        -2.243204
 H         4.032891         1.240534        -1.159164
 H         3.923990        -1.509724         0.052149
 H         4.695079        -0.174075         0.902128
 H         1.357818        -1.125146         2.304496
 H         2.660574         2.707112         1.529197
