19
Iteration:   320charge 0 multiplicity 1
 C        -0.186753        -0.523782         0.338717
 C         1.251932        -0.182606        -0.008251
 C         2.348454        -1.000920        -0.811255
 C         3.387976         0.129400        -0.417967
 C         3.670825        -0.133130         1.044549
 C         2.226455         0.410088         1.294381
 O         1.742323         0.863673         2.572301
 C         2.165113         1.094886        -0.066094
 O         2.297009         2.441053        -0.397066
 H        -0.766430         0.399839         0.261579
 H        -0.555191        -1.216363        -0.407791
 H        -0.304034        -0.978025         1.316819
 H         2.539675        -2.034638        -0.572238
 H         2.111763        -0.975802        -1.882903
 H         4.253120         0.566935        -1.080052
 H         4.147171        -1.021496         1.489837
 H         4.364801         0.751775         1.322251
 H         1.984681         0.208133         3.193342
 H         1.432168         2.877361        -0.369186
