19
Iteration:  3417charge 0 multiplicity 1
 C        -0.143181        -0.522546         0.302086
 C         1.331854        -0.236894         0.135695
 C         2.177853        -0.737378        -0.943896
 C         3.256454         0.285398        -0.628391
 C         3.732629        -0.107702         0.826054
 C         2.371320         0.291574         1.300018
 O         2.082029         0.380112         2.639333
 C         2.223983         1.221275         0.075867
 O         2.002772         2.626960        -0.094491
 H        -0.281441        -1.505184        -0.152385
 H        -0.508482        -0.395139         1.359555
 H        -0.917724         0.172582        -0.222901
 H         2.421810        -1.828031        -0.819580
 H         1.791373        -0.667782        -1.965293
 H         3.914713         0.571256        -1.463309
 H         4.227012        -1.098309         1.103084
 H         4.428321         0.656888         1.210553
 H         1.191677        -0.009914         2.663387
 H         1.183087         2.642175        -0.654330
