19
Iteration:  1179charge 0 multiplicity 1
 C         0.002048        -0.641511         0.182846
 C         1.459955        -0.251361         0.193190
 C         2.351170        -0.897394        -0.925435
 C         3.378849         0.112029        -0.394726
 C         3.611912        -0.202063         1.144846
 C         2.209381         0.416879         1.338041
 O         1.879523         1.005760         2.586291
 C         2.288447         1.122161         0.014061
 O         1.878505         2.394630        -0.502778
 H        -0.622200        -0.216442         0.992570
 H        -0.387755        -0.370924        -0.818884
 H        -0.159262        -1.705211         0.273968
 H         2.756741        -2.060475        -1.016317
 H         1.824347        -0.712081        -1.858230
 H         4.183425         0.410388        -0.978570
 H         3.734951        -1.220817         1.493962
 H         4.167847         0.497513         1.718667
 H         0.872519         1.062023         2.536220
 H         2.085975         2.986227         0.254281
