19
Iteration:  4742
 C        -0.157100        -0.413348         0.208838
 C         1.320821         0.134047         0.001215
 C         2.096306        -0.049977        -1.299383
 C         3.309834         0.676421        -0.647915
 C         3.649353        -0.411823         0.426855
 C         2.326749        -0.130159         1.067498
 O         1.927960        -0.311987         2.328776
 C         2.246288         1.323604         0.377724
 O         2.181144         2.571759         0.936130
 H        -0.458750        -1.028184        -0.652832
 H        -0.349421        -1.062372         1.074744
 H        -0.738097         0.514585         0.301372
 H         2.012276        -1.058764        -1.784360
 H         1.652981         0.555902        -2.073028
 H         4.094402         1.208492        -1.118595
 H         3.896896        -1.490537         0.110320
 H         4.455316        -0.129572         1.056086
 H         1.340242        -1.085316         2.462309
 H         3.049362         2.834500         1.365879
