19
Iteration:  1277charge 0 multiplicity 1
 C        -0.035316        -0.259318         0.314396
 C         1.443850        -0.204421         0.074717
 C         2.426879        -1.051244        -0.677519
 C         3.429456         0.153601        -0.455302
 C         3.793270         0.016317         1.093358
 C         2.314811         0.336598         1.306186
 O         1.630072         0.681255         2.441743
 C         2.181394         1.098225        -0.058239
 O         1.775355         2.358325        -0.416128
 H        -0.236258         0.379569         1.182086
 H        -0.630282         0.103676        -0.528632
 H        -0.308351        -1.240359         0.676037
 H         2.768832        -1.923967        -0.034986
 H         2.409927        -1.131207        -1.754312
 H         4.218478         0.497401        -1.155721
 H         4.242504        -0.945603         1.303377
 H         4.396149         0.853396         1.426572
 H         2.101336         0.289268         3.210997
 H         2.081437         2.379276        -1.342234
