19
Iteration:   581charge 0 multiplicity 1
 C        -0.140701        -0.170509         0.079218
 C         1.371022        -0.235145         0.117510
 C         2.456828        -0.991361        -0.792624
 C         3.430700         0.153210        -0.368569
 C         3.738660        -0.099716         1.080881
 C         2.275107         0.404592         1.369121
 O         1.900039         0.697618         2.593999
 C         2.113234         0.994698        -0.003578
 O         1.826918         2.265615        -0.431237
 H        -0.639686         0.791020         0.367407
 H        -0.503101        -0.490784        -0.912882
 H        -0.552772        -0.807328         0.876510
 H         2.739699        -2.092215        -0.594680
 H         2.125094        -0.837129        -1.807197
 H         4.164339         0.539407        -1.111618
 H         4.132306        -1.117209         1.270540
 H         4.488373         0.624199         1.434969
 H         1.232903         1.427495         2.608936
 H         2.440820         2.840871         0.052157
