19
Iteration:  2408charge 0 multiplicity 1
 C        -0.042104        -0.239587         0.301148
 C         1.436869        -0.179163         0.252406
 C         2.376461        -1.027127        -0.683304
 C         3.393921         0.090067        -0.517970
 C         3.779976        -0.051250         0.945565
 C         2.347532         0.379915         1.337538
 O         1.922937         0.820554         2.578586
 C         2.286144         1.076655        -0.055466
 O         1.642309         2.220874        -0.417489
 H        -0.282026         0.731624        -0.100219
 H        -0.435848        -0.982539        -0.361055
 H        -0.413590        -0.306910         1.348680
 H         2.748446        -2.062290        -0.777332
 H         1.888838        -0.860036        -1.647511
 H         4.212202         0.265763        -1.227885
 H         3.920362        -1.199929         1.079855
 H         4.504553         0.609722         1.275558
 H         1.202876         1.442939         2.449855
 H         0.869671         2.073379        -0.996655
