19
Iteration:  4370
 C        -0.083396        -0.153454         0.297461
 C         1.339427         0.036110        -0.021524
 C         2.119903        -0.267818        -1.252406
 C         3.168805         0.581261        -0.615660
 C         3.711802        -0.318677         0.666994
 C         2.392998        -0.011689         1.207770
 O         2.136154        -0.489887         2.489549
 C         2.173772         1.243383         0.354742
 O         1.954868         2.674425         0.366678
 H        -0.289212        -0.084346         1.385043
 H        -0.635268         0.619093        -0.272157
 H        -0.371524        -1.165840        -0.029439
 H         2.267960        -1.371095        -1.444012
 H         1.729844         0.310750        -2.166766
 H         3.894419         1.090105        -1.281860
 H         3.907335        -1.366169         0.357564
 H         4.537102         0.150740         1.126017
 H         1.178339        -0.691619         2.725019
 H         2.653136         3.195486         0.841214
