19
Iteration:  1881charge 0 multiplicity 1
 C        -0.104590        -0.529480         0.303047
 C         1.301987        -0.284347         0.143143
 C         2.278706        -1.070702        -0.659800
 C         3.302302         0.157376        -0.506154
 C         3.834542        -0.101450         0.910850
 C         2.407671         0.455199         1.287733
 O         2.002207         0.976529         2.501594
 C         2.159826         1.021965        -0.043297
 O         1.819081         2.398601        -0.284193
 H        -0.705252         0.336970         0.046958
 H        -0.380748        -1.066621        -0.582624
 H        -0.568319        -1.071491         1.079141
 H         2.589110        -1.897155        -0.012695
 H         1.993720        -1.353849        -1.657788
 H         3.730163         0.424873        -1.479149
 H         4.156744        -1.058340         1.259985
 H         4.665207         0.675118         1.242771
 H         2.506474         1.814418         2.584217
 H         0.910992         2.388546        -0.610633
