19
Iteration:  3140
 C        -0.154585        -0.382664         0.304556
 C         1.404604        -0.139818         0.155972
 C         2.220940        -0.826347        -0.902156
 C         3.326222         0.217079        -0.643523
 C         3.797197        -0.131004         0.830863
 C         2.404926         0.290345         1.238354
 O         2.007541         0.543562         2.578369
 C         2.109742         1.110565         0.060730
 O         1.820910         2.466693        -0.135527
 H        -0.712430         0.602989         0.383918
 H        -0.371493        -0.961664        -0.577707
 H        -0.237338        -1.059819         1.152600
 H         2.331176        -1.939869        -0.776494
 H         1.800346        -0.707313        -1.916574
 H         4.034477         0.432016        -1.448856
 H         3.980308        -1.204760         1.067426
 H         4.469705         0.567949         1.215048
 H         2.810988         0.654679         3.089448
 H         1.529401         2.766016         0.758803
