19
Iteration:  4763charge 0 multiplicity 1
 C        -0.155352        -0.435793         0.048437
 C         1.213673         0.135900        -0.079534
 C         1.942605         0.013620        -1.343514
 C         3.196997         0.589106        -0.676085
 C         3.693899        -0.384879         0.495778
 C         2.348628        -0.031767         1.148197
 O         2.014870        -0.401000         2.455602
 C         2.251540         1.295385         0.454143
 O         2.290181         2.638474         0.891677
 H        -0.068743        -1.438673        -0.385958
 H        -0.435698        -0.582476         1.113505
 H        -0.967936         0.139966        -0.422840
 H         2.269372        -0.900077        -1.877106
 H         1.798187         0.561136        -2.214730
 H         3.926159         1.170147        -1.215158
 H         4.062079        -1.433635         0.264362
 H         4.473273         0.028615         1.077389
 H         1.444707        -1.218069         2.503283
 H         2.921395         2.656481         1.633180
