19
Iteration:  1238
 C        -0.010141        -0.406710         0.382338
 C         1.399086        -0.207427         0.116352
 C         2.384603        -1.007437        -0.747609
 C         3.431172         0.117358        -0.417961
 C         3.763918         0.116416         1.057283
 C         2.279921         0.343559         1.306457
 O         1.562990         0.599567         2.489342
 C         2.209206         1.082128        -0.066789
 O         2.046171         2.390992        -0.508392
 H        -0.318451        -0.026361         1.366201
 H        -0.618777         0.243616        -0.291382
 H        -0.332796        -1.489175         0.236646
 H         2.645557        -2.044735        -0.428063
 H         1.876303        -0.845975        -1.755020
 H         4.186352         0.376891        -1.240611
 H         4.308097        -0.720879         1.617992
 H         4.211560         1.080520         1.425763
 H         1.890171         1.481612         2.783606
 H         1.112649         2.602149        -0.409931
