19
Iteration:  1294charge 0 multiplicity 1
 C        -0.029462        -0.331601         0.243097
 C         1.408793        -0.148144         0.048453
 C         2.456676        -0.980594        -0.717624
 C         3.491510         0.133784        -0.371430
 C         3.708187        -0.082033         1.087937
 C         2.250073         0.311621         1.275444
 O         1.825443         0.813509         2.552530
 C         2.240787         1.106791        -0.038516
 O         1.656194         2.343600        -0.463482
 H        -0.462849         0.441814         0.913228
 H        -0.519484        -0.371499        -0.744908
 H        -0.219747        -1.342523         0.701730
 H         2.680821        -1.988575        -0.385455
 H         2.037093        -1.156787        -1.733183
 H         4.312995         0.265901        -1.045815
 H         4.005839        -1.094012         1.465855
 H         4.284784         0.755421         1.580461
 H         1.845995         0.029033         3.175652
 H         2.199652         2.809585        -1.114340
