19
Iteration:   928
 C        -0.078370        -0.451061         0.221026
 C         1.445134        -0.239391         0.095649
 C         2.365405        -1.044201        -0.820362
 C         3.413831         0.053272        -0.487685
 C         3.698213        -0.090456         1.197132
 C         2.343484         0.433132         1.248155
 O         1.755851         0.913750         2.440488
 C         2.170250         1.064553        -0.100293
 O         1.859615         2.414955        -0.288942
 H        -0.577294        -0.200456         1.201638
 H        -0.545139         0.136989        -0.612713
 H        -0.361005        -1.511423         0.090998
 H         2.490783        -2.115110        -0.620415
 H         1.969405        -0.916079        -1.885175
 H         4.308343         0.124679        -1.026644
 H         3.766216        -1.147510         1.607914
 H         4.478651         0.562289         1.574047
 H         2.526373         1.305858         2.949901
 H         1.993703         2.769191         0.611900
