19
Iteration:  2436charge 0 multiplicity 1
 C        -0.122150        -0.292410         0.171334
 C         1.362296        -0.238468         0.134130
 C         2.337379        -1.095098        -0.729320
 C         3.385460         0.090904        -0.515250
 C         3.809084         0.022676         1.034528
 C         2.427420         0.384180         1.334191
 O         2.041937         0.824007         2.599559
 C         2.130695         0.997251        -0.028203
 O         1.654902         2.295350        -0.300343
 H        -0.296307         0.319848        -0.786490
 H        -0.758869        -1.246280         0.150672
 H        -0.523227         0.331132         0.950941
 H         2.772802        -2.070845        -0.448638
 H         1.922179        -1.318621        -1.758340
 H         4.178759         0.447027        -1.145035
 H         4.060132        -0.932522         1.419023
 H         4.580185         0.951846         1.271188
 H         1.917909         1.791947         2.515515
 H         1.235634         2.351729        -1.190855
