19
Iteration:  2570
 C        -0.096506        -0.543531         0.290326
 C         1.394842        -0.131166         0.213869
 C         2.258223        -0.929598        -0.765559
 C         3.362349         0.184282        -0.600716
 C         3.755286        -0.120470         0.933915
 C         2.333303         0.365266         1.348930
 O         1.882914         0.716047         2.590297
 C         2.163860         1.145656        -0.022513
 O         1.924976         2.420861        -0.314148
 H        -0.415219        -0.707300         1.330402
 H        -0.824224         0.167493        -0.068192
 H        -0.245514        -1.398065        -0.317012
 H         2.487363        -1.911780        -0.350541
 H         1.884691        -1.035693        -1.829375
 H         4.179303         0.434614        -1.315284
 H         4.040841        -1.183478         1.161757
 H         4.515318         0.655405         1.302909
 H         2.060235         1.683972         2.687749
 H         1.536238         2.433174        -1.220639
