19
Iteration:  3231
 C        -0.073364        -0.468618         0.402267
 C         1.375330        -0.124028         0.095716
 C         2.183567        -0.772923        -0.981024
 C         3.301510         0.201169        -0.611697
 C         3.757416        -0.224935         0.778864
 C         2.361939         0.292962         1.275566
 O         2.078663         0.485083         2.654471
 C         2.179733         1.191673         0.054899
 O         1.851335         2.562082        -0.079462
 H        -0.744788        -0.254137        -0.414090
 H        -0.197326        -1.473043         0.805486
 H        -0.484049         0.085356         1.288342
 H         2.216190        -1.877560        -0.900524
 H         1.950968        -0.621697        -2.056973
 H         4.018936         0.546953        -1.404188
 H         3.858787        -1.286841         0.990421
 H         4.586925         0.531967         1.118524
 H         1.106784         0.530702         2.774674
 H         1.983909         2.893290        -0.992083
