19
Iteration:  3673
 C        -0.147950        -0.317832         0.220750
 C         1.334771        -0.065997         0.124968
 C         2.200342        -0.620958        -1.081927
 C         3.230999         0.353134        -0.569395
 C         3.766175        -0.212231         0.740225
 C         2.408848         0.154224         1.282812
 O         2.027488         0.236073         2.621180
 C         2.213273         1.210505         0.175454
 O         1.952857         2.519833         0.083938
 H        -0.351656        -1.331165         0.465321
 H        -0.718925         0.346532         0.921329
 H        -0.546991        -0.346889        -0.762386
 H         2.473959        -1.669088        -1.144560
 H         1.670220        -0.340403        -1.990663
 H         3.925676         0.686560        -1.384558
 H         4.173524        -1.199206         0.788647
 H         4.554318         0.609172         1.049293
 H         2.142017        -0.619809         3.042419
 H         1.124366         2.730053        -0.390282
