19
Iteration:  3873
 C        -0.094642        -0.222700         0.358610
 C         1.325678        -0.109488        -0.011633
 C         2.127626        -0.478767        -1.250047
 C         3.303053         0.384764        -0.586297
 C         3.818429        -0.262829         0.730364
 C         2.459957         0.176654         1.225939
 O         1.989180         0.231949         2.485876
 C         2.249579         1.108845         0.211703
 O         1.853826         2.415025         0.282812
 H        -0.318818        -1.290302         0.387460
 H        -0.474665         0.378233         1.189625
 H        -0.730340         0.029521        -0.499145
 H         2.207742        -1.544543        -1.391116
 H         1.698808        -0.052302        -2.146906
 H         3.957571         0.885994        -1.258101
 H         3.931774        -1.317626         0.528782
 H         4.689464         0.167682         1.182348
 H         1.544337        -0.515611         2.948522
 H         1.937407         2.714222         1.197055
