19
Iteration:  1750
 C        -0.110832        -0.486799         0.263602
 C         1.344614        -0.229571         0.231545
 C         2.261781        -1.027666        -0.726770
 C         3.294841         0.118465        -0.535141
 C         3.809086        -0.050957         0.939073
 C         2.429701         0.551205         1.379065
 O         1.955575         0.951461         2.718637
 C         2.150165         1.054097        -0.043105
 O         1.869451         2.277990        -0.611296
 H        -0.635032        -0.101547         1.149649
 H        -0.636901        -0.261042        -0.697995
 H        -0.254072        -1.597562         0.400401
 H         2.491340        -2.079990        -0.358079
 H         1.869025        -1.165011        -1.742104
 H         3.915868         0.678459        -1.173890
 H         4.246588        -0.964932         1.248787
 H         4.576974         0.825048         1.106896
 H         2.330128         0.300201         3.312859
 H         0.947781         2.532222        -0.496173
