19
Iteration:  2638charge 0 multiplicity 1
 C        -0.034673        -0.143970         0.324712
 C         1.434971        -0.299589         0.214803
 C         2.291628        -1.042390        -0.796081
 C         3.436314         0.233125        -0.530470
 C         3.858499        -0.083512         0.947617
 C         2.462924         0.295365         1.263883
 O         1.826055         0.665061         2.421961
 C         2.229422         1.092709         0.008092
 O         1.601594         2.323574        -0.184987
 H        -0.375932         0.853536        -0.036211
 H        -0.580449        -0.810935        -0.321726
 H        -0.514275        -0.281114         1.294328
 H         2.602035        -2.046013        -0.486539
 H         1.896231        -1.064436        -1.839544
 H         4.196672         0.541544        -1.305002
 H         4.108242        -1.207334         1.215186
 H         4.474802         0.668095         1.486392
 H         2.075930         1.557669         2.698633
 H         1.321338         2.312153        -1.110665
