19
Iteration:  1555
 C        -0.009209        -0.323722         0.474213
 C         1.423221        -0.260239         0.145875
 C         2.445643        -1.068778        -0.736530
 C         3.431766         0.080025        -0.546732
 C         3.759737        -0.005532         1.029239
 C         2.319145         0.382036         1.242759
 O         1.784821         0.956320         2.395359
 C         2.186740         1.004187        -0.093449
 O         1.714120         2.316383        -0.289894
 H        -0.302667         0.489917         1.143607
 H        -0.681331        -0.246503        -0.405522
 H        -0.207949        -1.293532         0.954283
 H         2.860999        -2.061021        -0.484711
 H         2.108868        -1.036730        -1.778374
 H         4.215202         0.304083        -1.236985
 H         4.175013        -0.975568         1.554393
 H         4.284403         0.870287         1.419732
 H         1.192992         0.282129         2.743498
 H         1.881677         2.585676        -1.214442
