19
Iteration:  2310charge 0 multiplicity 1
 C        -0.188938        -0.674274         0.419744
 C         1.331327        -0.183633         0.261479
 C         2.223210        -1.094933        -0.634086
 C         3.323016         0.057601        -0.541112
 C         3.847045         0.103504         0.948409
 C         2.360695         0.533210         1.263518
 O         1.890229         0.883142         2.513760
 C         2.225073         1.073639        -0.114929
 O         2.006503         2.405964        -0.386763
 H        -0.538333        -0.678713         1.424981
 H        -0.811122        -0.112458        -0.211505
 H        -0.108333        -1.723772         0.050213
 H         2.551490        -2.136703        -0.514317
 H         1.912018        -1.022029        -1.653805
 H         3.830309         0.111053        -1.477894
 H         4.039883        -0.854929         1.522532
 H         4.544177         0.961152         0.997116
 H         1.087374         1.409440         2.500912
 H         1.896291         2.620272        -1.328975
