19
Iteration:  1399
 C         0.033328        -0.392810         0.512045
 C         1.441206        -0.120204         0.051255
 C         2.428536        -1.049753        -0.694800
 C         3.424052         0.099483        -0.485083
 C         3.737994        -0.029452         0.989311
 C         2.296230         0.410003         1.256296
 O         1.594660         0.615586         2.431641
 C         2.226774         1.108360        -0.071228
 O         1.793205         2.414889        -0.433488
 H        -0.414974         0.556610         0.743181
 H        -0.622304        -0.815001        -0.277339
 H         0.106640        -1.175160         1.276808
 H         2.537069        -2.025174        -0.160822
 H         2.241026        -1.372635        -1.727745
 H         4.153320         0.364669        -1.284036
 H         4.368885        -0.804156         1.458806
 H         4.380760         0.842466         1.230078
 H         1.708369         1.567509         2.709333
 H         2.461253         3.031014        -0.074893
