19
Iteration:  4867charge 0 multiplicity 1
 C        -0.121304         0.209646         0.338006
 C         1.336316        -0.011522        -0.003163
 C         2.160715        -0.066518        -1.343601
 C         3.293433         0.663852        -0.661107
 C         3.836848        -0.459712         0.424474
 C         2.414735        -0.136694         1.040441
 O         2.102619        -0.557099         2.365509
 C         2.252810         1.212754         0.332596
 O         1.731222         2.427366         0.981862
 H        -0.330588         0.933434         1.159183
 H        -0.479875         0.750092        -0.548925
 H        -0.718714        -0.713710         0.409085
 H         2.244756        -1.092443        -1.888423
 H         1.740353         0.768795        -1.960952
 H         4.019869         1.335428        -1.238561
 H         3.958303        -1.426356        -0.054429
 H         4.639011        -0.042798         1.154657
 H         1.693120        -1.446247         2.270911
 H         2.014682         3.002549         0.216009
