19
Iteration:  2621charge 0 multiplicity 1
 C        -0.023309        -0.141573         0.221140
 C         1.464913        -0.235602         0.140938
 C         2.390631        -0.992158        -0.753735
 C         3.347301         0.072777        -0.562189
 C         3.814811        -0.035957         0.902196
 C         2.321806         0.332579         1.298885
 O         1.870594         0.742936         2.549250
 C         2.183244         1.015483        -0.049334
 O         1.659967         2.283969        -0.111375
 H        -0.342969         0.905576         0.340827
 H        -0.505689        -0.607676        -0.706544
 H        -0.501818        -0.840671         0.983401
 H         2.730992        -2.039467        -0.540772
 H         1.949236        -1.056163        -1.753753
 H         4.055485         0.297349        -1.334518
 H         4.297119        -0.926455         1.160299
 H         4.567596         0.804427         1.034732
 H         2.413850         1.475244         2.882597
 H         1.048411         2.334759        -0.864213
