19
Iteration:  2347
 C        -0.011081        -0.496294         0.608055
 C         1.370153        -0.138416         0.163053
 C         2.348538        -1.094425        -0.719216
 C         3.304224         0.135187        -0.532604
 C         3.691588         0.017556         1.014314
 C         2.196775         0.417447         1.271386
 O         1.887435         0.742600         2.562087
 C         2.209413         1.135059        -0.141586
 O         1.983284         2.421555        -0.572527
 H        -0.360943        -0.018757         1.581859
 H        -0.873949        -0.266824        -0.097245
 H        -0.144240        -1.589459         0.769817
 H         2.921812        -1.981760        -0.433650
 H         1.913095        -1.106692        -1.758338
 H         4.067104         0.342330        -1.333150
 H         4.114366        -0.880498         1.284240
 H         4.462262         0.749878         1.519425
 H         1.003657         1.048744         2.784920
 H         1.854325         2.341241        -1.546521
