19
Iteration:  2186charge 0 multiplicity 1
 C        -0.160291        -0.344553         0.474969
 C         1.381911        -0.215970         0.208083
 C         2.337935        -1.043239        -0.632303
 C         3.320902         0.218153        -0.506581
 C         3.749466         0.073703         0.972904
 C         2.306811         0.361181         1.246489
 O         1.952612         0.602535         2.696593
 C         2.088112         1.117933        -0.081174
 O         1.929089         2.345382        -0.713821
 H        -0.541107         0.645383         0.773550
 H        -0.565452        -0.649804        -0.498454
 H        -0.321638        -1.085964         1.185525
 H         2.663964        -1.911782        -0.045631
 H         1.944030        -1.283648        -1.627208
 H         4.159421         0.552078        -1.195266
 H         4.224902        -0.855933         1.550590
 H         4.499641         0.789561         1.126182
 H         2.465280         1.408958         2.803056
 H         1.264206         2.184647        -1.419471
