19
Iteration:  3992
 C        -0.164130        -0.222430         0.448827
 C         1.296787        -0.011680        -0.026948
 C         2.214718        -0.486192        -1.218025
 C         3.338870         0.442106        -0.549035
 C         3.799388        -0.319500         0.626192
 C         2.442891         0.135113         1.290762
 O         1.916238        -0.088514         2.513104
 C         2.213731         1.189065         0.236461
 O         1.867431         2.639995         0.157898
 H        -0.974794         0.530955         0.241105
 H        -0.440335        -1.167159        -0.083444
 H        -0.219851        -0.343658         1.518572
 H         2.489702        -1.529951        -1.590335
 H         1.941205         0.139423        -2.105295
 H         4.011648         0.886541        -1.261416
 H         4.067799        -1.315710         0.291855
 H         4.735907         0.243397         1.153129
 H         2.048478        -0.916130         2.961241
 H         2.290513         2.894248         1.019411
