19
Iteration:  2209charge 0 multiplicity 1
 C        -0.115460        -0.253210         0.438899
 C         1.395882        -0.225627         0.250572
 C         2.358789        -1.038162        -0.679493
 C         3.374942         0.056781        -0.566741
 C         3.841870         0.085063         0.991166
 C         2.415818         0.453165         1.269053
 O         1.818234         0.722026         2.585778
 C         2.173627         1.026651        -0.072498
 O         1.767976         2.274487        -0.536864
 H        -0.355474         0.560863         1.124416
 H        -0.611376        -0.133927        -0.527128
 H        -0.351446        -1.184180         0.871671
 H         2.599308        -2.073136        -0.409183
 H         2.014242        -0.950472        -1.705862
 H         4.050981         0.329117        -1.424216
 H         4.180316        -1.004585         1.276661
 H         4.646636         0.634996         1.341766
 H         2.177261         1.600662         2.864215
 H         1.121064         1.988143        -1.196547
