19
Iteration:  1721
 C        -0.089359        -0.323880         0.321070
 C         1.404617        -0.328835         0.325607
 C         2.379757        -1.018341        -0.700787
 C         3.402925         0.141140        -0.471807
 C         3.756976        -0.043841         0.967976
 C         2.346461         0.383309         1.265795
 O         2.043526         0.952395         2.526750
 C         2.159233         1.031990        -0.058760
 O         1.696172         2.238804        -0.556930
 H        -0.411200         0.530861         0.996365
 H        -0.555820        -0.117964        -0.639946
 H        -0.369657        -1.352894         0.681503
 H         2.526214        -2.085488        -0.489635
 H         1.865524        -0.841790        -1.676696
 H         4.100336         0.717537        -1.210181
 H         4.249980        -1.025687         1.251512
 H         4.288272         0.791467         1.276022
 H         1.279779         0.552565         2.985670
 H         1.072870         2.643908         0.080575
