19
Iteration:  4528charge 0 multiplicity 1
 C        -0.133917        -0.325450         0.163698
 C         1.281308         0.130467        -0.084590
 C         2.034670        -0.163593        -1.318320
 C         3.240161         0.597326        -0.629640
 C         3.741309        -0.327308         0.477859
 C         2.380128        -0.102076         1.125926
 O         1.975051        -0.129345         2.430818
 C         2.164753         1.227467         0.366959
 O         2.188469         2.461559         0.805350
 H        -0.206996        -1.324529        -0.324563
 H        -0.409042        -0.313163         1.248029
 H        -0.928510         0.328323        -0.299611
 H         2.442134        -1.203744        -1.568714
 H         1.566418         0.273489        -2.226613
 H         3.997179         1.088540        -1.163209
 H         4.088011        -1.336478         0.336082
 H         4.533173         0.240707         1.084720
 H         1.811764        -1.075422         2.705503
 H         2.196324         2.526569         1.798969
