19
Iteration:   793
 C        -0.049306        -0.280493         0.235942
 C         1.409331        -0.211836         0.137818
 C         2.326491        -0.978843        -0.735726
 C         3.437941         0.061789        -0.433561
 C         3.757415        -0.048813         1.048813
 C         2.407084         0.509041         1.301564
 O         1.679587         0.758336         2.460316
 C         2.202146         1.026440        -0.019564
 O         1.833004         2.274937        -0.422171
 H        -0.586058         0.704745         0.234974
 H        -0.366554        -0.789012        -0.705728
 H        -0.379361        -0.882651         1.139230
 H         2.673267        -2.031934        -0.504064
 H         2.138290        -0.857627        -1.784536
 H         4.259444         0.373515        -1.174703
 H         3.905263        -1.138930         1.259836
 H         4.655107         0.506549         1.490907
 H         2.274553         0.926997         3.185268
 H         1.522374         2.698547         0.385627
