19
Iteration:  1741charge 0 multiplicity 1
 C        -0.089148        -0.469508         0.269916
 C         1.399844        -0.247397         0.251813
 C         2.287887        -1.024313        -0.783523
 C         3.238586         0.160128        -0.529831
 C         3.796240        -0.005230         0.982866
 C         2.411393         0.476638         1.369038
 O         1.997338         0.981075         2.672676
 C         2.112665         1.051406         0.011449
 O         1.851490         2.247200        -0.606566
 H        -0.569393         0.246179         1.008082
 H        -0.488032        -0.065629        -0.689028
 H        -0.311900        -1.600696         0.383969
 H         2.755477        -1.924447        -0.303939
 H         1.779058        -1.211214        -1.756433
 H         3.939600         0.209014        -1.405504
 H         4.092060        -0.994190         1.221112
 H         4.563800         0.718015         1.263414
 H         2.020572         0.206588         3.240327
 H         0.953477         2.446591        -0.313355
