19
Iteration:  2961charge 0 multiplicity 1
 C        -0.136776        -0.551408         0.325973
 C         1.337823        -0.266802         0.104121
 C         2.259772        -0.871202        -0.929397
 C         3.359055         0.203404        -0.649971
 C         3.772257        -0.104905         0.870997
 C         2.342701         0.276850         1.206930
 O         1.935526         0.803340         2.547881
 C         2.156510         1.089841         0.011390
 O         1.881501         2.444791        -0.033312
 H        -0.535746        -1.261167        -0.424736
 H        -0.580223        -0.830905         1.363612
 H        -0.736847         0.365224         0.115658
 H         2.629414        -1.910220        -0.673915
 H         1.961885        -0.588467        -1.961281
 H         4.111635         0.442778        -1.440140
 H         4.212076        -1.221687         1.087807
 H         4.489674         0.472238         1.415009
 H         2.615511         1.490669         2.664756
 H         1.860076         2.734002         0.910527
