19
Iteration:   561charge 0 multiplicity 1
 C        -0.134462        -0.264404         0.238300
 C         1.425772        -0.250345         0.081340
 C         2.362003        -1.021436        -0.737145
 C         3.481337         0.051450        -0.477192
 C         3.734026        -0.066362         1.098504
 C         2.315073         0.302887         1.235808
 O         1.763801         0.775321         2.500903
 C         2.315727         1.094024        -0.099637
 O         1.840496         2.427930        -0.313760
 H        -0.490444         0.778836         0.471422
 H        -0.558706        -0.457085        -0.770085
 H        -0.629491        -0.873888         1.042090
 H         2.726338        -2.061651        -0.250987
 H         2.036807        -1.121919        -1.763798
 H         4.225675         0.166823        -1.237903
 H         4.036449        -1.025084         1.478768
 H         4.348859         0.749177         1.532002
 H         0.857710         0.490592         2.487448
 H         1.987635         2.924478         0.500050
