19
Iteration:  2985
 C        -0.111976        -0.524375         0.172511
 C         1.347910        -0.172451         0.179252
 C         2.166211        -0.892145        -0.903809
 C         3.254723         0.130917        -0.602961
 C         3.816732        -0.094900         0.805044
 C         2.434899         0.292712         1.293782
 O         1.965840         0.775499         2.504179
 C         2.180533         1.066628         0.029794
 O         1.910422         2.441954         0.043466
 H        -0.287847        -1.602575        -0.085980
 H        -0.604889        -0.358472         1.170575
 H        -0.807124         0.001215        -0.477911
 H         2.550920        -1.857039        -0.567179
 H         1.795459        -0.674702        -1.905122
 H         3.966364         0.554435        -1.283131
 H         4.495687        -1.066058         1.073267
 H         4.572314         0.687799         1.127976
 H         2.422383         1.643938         2.681752
 H         1.011453         2.486153         0.398036
