19
Iteration:   352
 C        -0.063808        -0.230417         0.236550
 C         1.442073        -0.116807         0.108628
 C         2.286582        -1.035306        -0.799277
 C         3.479535         0.152387        -0.359781
 C         3.707642        -0.226824         1.156322
 C         2.329605         0.459178         1.323428
 O         1.759324         0.723254         2.597258
 C         2.267739         1.104287        -0.050166
 O         1.864905         2.317539        -0.619586
 H        -0.579452         0.763764         0.204513
 H        -0.444965        -0.705612        -0.677426
 H        -0.485171        -0.675815         1.156056
 H         2.484104        -2.050885        -0.534178
 H         1.981362        -0.882324        -1.775131
 H         4.326029         0.632359        -0.992454
 H         3.906725        -1.292348         1.439832
 H         4.507522         0.524093         1.450089
 H         1.596697        -0.133119         3.116595
 H         1.528705         2.862596         0.140549
