19
Iteration:  2667charge 0 multiplicity 1
 C         0.022297        -0.294541         0.488061
 C         1.405671        -0.158372         0.063902
 C         2.351053        -0.902959        -0.899360
 C         3.421737         0.147899        -0.491917
 C         3.732928        -0.124805         0.902617
 C         2.413034         0.375003         1.304939
 O         1.772887         0.581198         2.605754
 C         2.193491         1.082296        -0.027133
 O         1.773424         2.371582        -0.338578
 H        -0.684485         0.156112        -0.244980
 H        -0.403276        -1.299832         0.735915
 H        -0.238410         0.131746         1.430498
 H         2.476672        -1.992479        -0.837482
 H         2.208096        -0.704300        -1.971164
 H         4.194294         0.469905        -1.181773
 H         3.965805        -1.048638         1.305487
 H         4.480654         0.681173         1.330460
 H         1.632577         1.526026         2.858034
 H         1.343939         2.305314        -1.219885
