19
Iteration:    80charge 0 multiplicity 1
 C        -0.071149        -0.667554         0.397408
 C         1.306598        -0.218701         0.019706
 C         2.283503        -0.955394        -0.747841
 C         3.408843         0.072457        -0.487269
 C         3.612169        -0.131813         1.015008
 C         2.236062         0.416950         1.224318
 O         1.741394         0.953707         2.371622
 C         2.280299         1.167837        -0.033197
 O         2.202492         2.506823        -0.167029
 H        -0.594822         0.172310         0.920723
 H        -0.782456        -1.131895        -0.323483
 H         0.051436        -1.413018         1.227424
 H         2.523396        -2.004512        -0.548764
 H         1.975756        -0.845953        -1.856108
 H         4.227327         0.186069        -1.208955
 H         3.693621        -1.185872         1.387815
 H         4.416468         0.440068         1.540533
 H         0.986554         0.437616         2.577333
 H         1.933760         2.762386        -1.078330
