19
Iteration:    19
 C        -0.212711        -0.497903         0.240065
 C         1.337561        -0.199904         0.196077
 C         2.335142        -1.001716        -0.785727
 C         3.345321         0.093435        -0.480620
 C         3.833740        -0.074871         1.012881
 C         2.367026         0.402397         1.354291
 O         1.678949         0.901777         2.517106
 C         2.239317         1.055036         0.011033
 O         2.114215         2.433736        -0.434050
 H        -0.866938         0.233886         0.716222
 H        -0.558713        -0.725541        -0.779276
 H        -0.331674        -1.483620         0.724337
 H         2.594924        -2.140517        -0.689163
 H         1.965687        -0.886983        -1.819372
 H         4.172798         0.431183        -1.188566
 H         4.205943        -1.053058         1.413991
 H         4.647180         0.601608         1.341470
 H         0.839365         0.447240         2.551496
 H         1.901943         2.872908         0.391275
