19
Iteration:  3879
 C        -0.118999        -0.195900         0.355741
 C         1.348229        -0.127711         0.019218
 C         2.138984        -0.502244        -1.303171
 C         3.337994         0.334647        -0.640688
 C         3.818236        -0.289871         0.695934
 C         2.438543         0.164482         1.247557
 O         2.013784         0.248448         2.510065
 C         2.240004         1.171034         0.182056
 O         1.793287         2.414472         0.347128
 H        -0.295386        -1.271303         0.680227
 H        -0.608593         0.562817         1.024539
 H        -0.712455        -0.105588        -0.593136
 H         2.379500        -1.593474        -1.522439
 H         1.865116         0.059516        -2.247140
 H         4.109314         0.840419        -1.279945
 H         3.911388        -1.423267         0.817047
 H         4.691669         0.315972         1.216874
 H         1.400280        -0.424012         2.861764
 H         2.114241         2.742065         1.229512
