19
Iteration:  1078charge 0 multiplicity 1
 C        -0.074106        -0.216005         0.274226
 C         1.412443        -0.164303         0.088725
 C         2.392335        -0.926628        -0.786762
 C         3.463382         0.131187        -0.390167
 C         3.797991        -0.077848         1.163044
 C         2.316786         0.393708         1.344525
 O         1.667809         0.539227         2.583218
 C         2.183557         1.103493         0.030672
 O         1.881248         2.287094        -0.639206
 H        -0.452323         0.805288         0.416034
 H        -0.561818        -0.518653        -0.645345
 H        -0.417823        -0.886337         1.042750
 H         2.474142        -2.089013        -0.695092
 H         2.215084        -0.623300        -1.813304
 H         4.389928         0.349577        -0.997541
 H         4.231545        -0.979390         1.522528
 H         4.452446         0.779687         1.371084
 H         2.135223         1.268036         3.044156
 H         1.035734         2.707452        -0.476127
