19
Iteration:  4424
 C        -0.033261         0.001513         0.388124
 C         1.437224        -0.011792        -0.009387
 C         2.074588        -0.258171        -1.398681
 C         3.335479         0.618955        -0.610472
 C         3.760837        -0.419559         0.562140
 C         2.412889        -0.029499         1.184873
 O         2.016677        -0.327963         2.438628
 C         2.281546         1.200224         0.332460
 O         1.732611         2.503463         0.545608
 H        -0.565620         0.976713         0.312817
 H        -0.519447        -0.669100        -0.341132
 H        -0.153260        -0.379532         1.425172
 H         2.221282        -1.335305        -1.507616
 H         1.636992         0.247992        -2.281755
 H         4.182580         1.252325        -1.020395
 H         4.064660        -1.461878         0.297627
 H         4.639156        -0.055769         0.998514
 H         1.137544        -0.794102         2.581225
 H         2.338234         3.137927         0.988288
