19
Iteration:   958
 C        -0.142467        -0.433475         0.278878
 C         1.380367        -0.180573         0.081598
 C         2.394679        -1.054161        -0.647064
 C         3.361295         0.104276        -0.517852
 C         3.798701        -0.015548         0.955431
 C         2.344985         0.294071         1.239035
 O         1.593371         0.950511         2.215551
 C         2.241469         1.013477        -0.010314
 O         2.055394         2.335760        -0.019659
 H        -0.576708        -0.144720         1.272295
 H        -0.693916         0.251293        -0.402566
 H        -0.410573        -1.465227         0.002876
 H         2.521739        -1.992750        -0.139845
 H         2.153204        -1.158876        -1.644409
 H         4.298944         0.105275        -1.212966
 H         4.378988        -0.975888         1.237586
 H         4.451896         0.892844         1.250737
 H         2.084468         1.729263         2.536235
 H         1.062199         2.414353        -0.023288
