19
Iteration:  2820charge 0 multiplicity 1
 C        -0.123632        -0.147156         0.260807
 C         1.478947        -0.171513         0.239158
 C         2.278877        -0.927650        -0.835345
 C         3.386205         0.154295        -0.592571
 C         3.842595        -0.127547         0.900901
 C         2.452867         0.285367         1.321286
 O         1.910852         0.527651         2.600029
 C         2.268644         1.135442         0.043559
 O         1.518656         2.308851        -0.285422
 H        -0.692692         0.057628         1.172396
 H        -0.400119         0.479482        -0.659701
 H        -0.121641        -1.122825        -0.132999
 H         2.539173        -1.981752        -0.615916
 H         1.900758        -0.669656        -1.832644
 H         4.191007         0.448050        -1.311705
 H         4.062525        -1.177306         1.171921
 H         4.727586         0.551796         1.015422
 H         2.000600         1.480646         2.767511
 H         2.094928         3.090511        -0.082574
