19
Iteration:    54charge 0 multiplicity 1
 C        -0.137572        -0.694127         0.363586
 C         1.284805        -0.123805         0.083547
 C         2.318410        -1.042266        -0.798582
 C         3.328490         0.090175        -0.482052
 C         3.600575        -0.067610         1.058302
 C         2.173017         0.322482         1.242595
 O         1.837241         0.931836         2.454077
 C         2.192170         1.125281        -0.164887
 O         2.355443         2.542678        -0.211251
 H        -1.039861        -0.276057         0.744626
 H        -0.352419        -1.206310        -0.543706
 H         0.192260        -1.410743         1.081903
 H         2.619131        -2.131906        -0.382194
 H         2.104354        -0.968151        -1.869494
 H         4.136455         0.462099        -1.135161
 H         3.769182        -0.999366         1.559284
 H         4.114910         0.816546         1.334322
 H         0.920550         0.737233         2.570589
 H         1.549511         3.049506        -0.308560
