19
Iteration:    50
 C        -0.106770        -0.678525         0.312120
 C         1.299373        -0.138688         0.122911
 C         2.308850        -1.040926        -0.760487
 C         3.296019         0.101918        -0.511893
 C         3.606780        -0.028785         1.044030
 C         2.177453         0.334202         1.277498
 O         1.832517         0.911501         2.430812
 C         2.192701         1.104043        -0.120593
 O         2.362079         2.513089        -0.234458
 H        -1.031962        -0.176998         0.721526
 H        -0.409886        -1.197324        -0.643801
 H         0.258747        -1.409665         1.108907
 H         2.578902        -2.056254        -0.466608
 H         1.925903        -0.821850        -1.774435
 H         4.211573         0.389202        -1.148032
 H         3.782725        -1.087009         1.481189
 H         4.137816         0.907432         1.409579
 H         0.854676         0.784386         2.582016
 H         1.502338         3.019719        -0.208861
