19
Iteration:  1902
 C        -0.141632        -0.510813         0.197647
 C         1.317559        -0.158853         0.374922
 C         2.283429        -1.049616        -0.639840
 C         3.355955         0.084617        -0.578477
 C         3.788258         0.011998         0.858231
 C         2.388058         0.364326         1.351369
 O         2.003933         0.900875         2.560178
 C         2.184317         1.073335        -0.051888
 O         1.814701         2.369872        -0.417704
 H        -0.971697         0.196230         0.127609
 H        -0.373734        -1.239886        -0.572237
 H        -0.295296        -1.051292         1.113032
 H         2.664514        -1.986001        -0.210719
 H         1.817140        -1.121225        -1.603695
 H         4.103246         0.054676        -1.390868
 H         4.209817        -0.952947         1.073069
 H         4.509473         0.772413         1.265796
 H         2.486177         1.706265         2.752239
 H         0.844190         2.487901        -0.405573
