19
Iteration:  1229charge 0 multiplicity 1
 C        -0.064267        -0.471700         0.344799
 C         1.440875        -0.159683         0.036416
 C         2.322188        -0.979276        -0.743454
 C         3.437291         0.190148        -0.418931
 C         3.775077         0.033361         1.140195
 C         2.234651         0.332762         1.334194
 O         1.652365         0.649735         2.499519
 C         2.212282         1.084444        -0.004588
 O         2.026257         2.394665        -0.552061
 H        -0.290799        -0.270074         1.412765
 H        -0.758480         0.031819        -0.336170
 H        -0.269941        -1.569310         0.237181
 H         2.459731        -1.915565        -0.361214
 H         2.107698        -1.108087        -1.838144
 H         4.204158         0.384193        -1.202754
 H         4.241505        -0.896836         1.551095
 H         4.447303         0.943083         1.326537
 H         1.729952         1.631382         2.545988
 H         1.174613         2.665714        -0.196248
