19
Iteration:  3189
 C        -0.083194        -0.317481         0.528614
 C         1.388328        -0.200578         0.077319
 C         2.224477        -0.785897        -0.954438
 C         3.353271         0.208854        -0.617100
 C         3.831760        -0.174136         0.775822
 C         2.402330         0.198284         1.193691
 O         1.884389         0.580344         2.418710
 C         2.182978         1.091167         0.000511
 O         1.839097         2.407796         0.146988
 H        -0.522191         0.538464         0.112090
 H        -0.537156        -1.256292         0.131362
 H        -0.087136        -0.113953         1.601115
 H         2.595163        -1.807144        -0.805160
 H         1.793556        -0.611465        -1.956568
 H         4.128569         0.561547        -1.324946
 H         4.185777        -1.213402         0.770838
 H         4.483514         0.733142         1.173773
 H         1.825588         1.572493         2.321899
 H         1.160786         2.503284        -0.545781
