19
Iteration:  3114
 C        -0.184278        -0.405062         0.347260
 C         1.378973        -0.177071         0.156965
 C         2.246387        -0.771370        -0.923337
 C         3.345617         0.301494        -0.568604
 C         3.727662        -0.148229         0.842637
 C         2.340805         0.289455         1.282462
 O         2.053178         0.385899         2.667723
 C         2.164232         1.185100         0.062793
 O         1.770965         2.486650        -0.304437
 H        -0.495387         0.461313         0.948772
 H        -0.761231        -0.573554        -0.640714
 H        -0.162973        -1.329825         0.927253
 H         2.398066        -1.879064        -0.834925
 H         1.838169        -0.653236        -1.946803
 H         4.155210         0.344604        -1.297460
 H         4.035531        -1.141964         1.118837
 H         4.421668         0.612713         1.198078
 H         2.814313         0.754079         3.123214
 H         2.528412         3.118496        -0.237342
