19
Iteration:  4577charge 0 multiplicity 1
 C        -0.075439        -0.254815         0.388141
 C         1.372407         0.079562        -0.037990
 C         2.152520        -0.102321        -1.323859
 C         3.229728         0.590383        -0.620712
 C         3.664144        -0.424134         0.455877
 C         2.416642        -0.037469         1.092175
 O         1.956218        -0.323911         2.347865
 C         2.257968         1.255833         0.364535
 O         2.048225         2.558164         0.747155
 H        -0.217133        -1.032137         1.180638
 H        -0.783777         0.606280         0.522307
 H        -0.434970        -0.954266        -0.416702
 H         2.199570        -1.171753        -1.717674
 H         1.814679         0.565705        -2.145486
 H         3.928267         1.383942        -1.092564
 H         3.716220        -1.467187        -0.037272
 H         4.543093        -0.228780         1.050426
 H         0.992051        -0.432601         2.221251
 H         2.168837         2.653456         1.688985
