19
Iteration:  1935charge 0 multiplicity 1
 C        -0.063788        -0.341942         0.483549
 C         1.409583        -0.245344         0.186000
 C         2.309051        -1.028428        -0.787652
 C         3.348659         0.116397        -0.475037
 C         3.809509         0.034011         0.972110
 C         2.417289         0.480621         1.366192
 O         1.899087         0.742561         2.550708
 C         2.084617         1.007943        -0.049414
 O         1.812941         2.318003        -0.590862
 H        -0.549432         0.553275         0.908673
 H        -0.736551        -0.718182        -0.352569
 H        -0.060333        -1.137875         1.234627
 H         2.648447        -2.063942        -0.570167
 H         1.936471        -1.105877        -1.813588
 H         4.065839         0.264691        -1.339368
 H         4.036402        -0.938773         1.325565
 H         4.541416         0.833990         1.301667
 H         2.286804         1.576135         2.848394
 H         0.860907         2.457329        -0.685653
