19
Iteration:  1279charge 0 multiplicity 1
 C        -0.027511        -0.256780         0.303971
 C         1.451580        -0.198378         0.068581
 C         2.421860        -1.042440        -0.677405
 C         3.425435         0.160618        -0.443940
 C         3.780027         0.002170         1.097767
 C         2.299608         0.319589         1.322307
 O         1.653737         0.693435         2.443315
 C         2.184579         1.096769        -0.061393
 O         1.757372         2.361417        -0.421493
 H        -0.273546         0.386237         1.150182
 H        -0.670502         0.073757        -0.534770
 H        -0.244410        -1.279336         0.692074
 H         2.746924        -1.939743         0.035626
 H         2.454045        -1.102912        -1.797804
 H         4.268988         0.453261        -1.179392
 H         4.284867        -0.966267         1.306005
 H         4.400573         0.819846         1.390782
 H         2.093464         0.268932         3.174597
 H         2.116792         2.403074        -1.340389
