19
Iteration:  3745
 C        -0.072670        -0.220656         0.361219
 C         1.385748        -0.039960         0.019640
 C         2.216470        -0.596064        -1.210019
 C         3.341382         0.324440        -0.761944
 C         3.817667        -0.355840         0.799846
 C         2.437906         0.103406         1.230350
 O         1.965567         0.348993         2.562586
 C         2.278927         1.190422         0.110797
 O         1.682607         2.443097         0.363727
 H        -0.416559         0.610526         1.002111
 H        -0.650277        -0.078021        -0.500386
 H        -0.192321        -1.063584         1.091212
 H         2.583030        -1.676413        -1.179452
 H         1.851840        -0.364149        -2.236754
 H         4.230357         0.624045        -1.305240
 H         4.169192        -1.433260         0.784295
 H         4.537823         0.265208         1.203770
 H         1.333869        -0.346689         2.813626
 H         1.518077         2.886918        -0.502527
