19
Iteration:   377charge 0 multiplicity 1
 C        -0.008521         0.002746         0.186153
 C         1.484600        -0.179821         0.203779
 C         2.394108        -0.954156        -0.706057
 C         3.486855         0.046496        -0.435894
 C         3.768925        -0.099961         1.046178
 C         2.320960         0.332674         1.377611
 O         1.706870         0.684250         2.511102
 C         2.324425         1.114157         0.091334
 O         1.642197         2.151377        -0.555193
 H        -0.203566         1.036290         0.425231
 H        -0.465666        -0.108882        -0.772564
 H        -0.582413        -0.532063         0.927311
 H         2.657682        -1.972109        -0.559565
 H         1.968246        -0.727225        -1.731202
 H         4.382556         0.202724        -1.079591
 H         3.848561        -1.162805         1.299285
 H         4.656973         0.554310         1.311060
 H         0.851562         0.223909         2.775810
 H         2.238551         2.930649        -0.478322
