19
Iteration:  1302
 C        -0.078424        -0.404188         0.197077
 C         1.437363        -0.179986         0.092182
 C         2.406341        -0.980272        -0.767225
 C         3.524182         0.076715        -0.437619
 C         3.679288        -0.092906         1.143362
 C         2.269724         0.421148         1.307582
 O         1.885633         0.840394         2.583084
 C         2.229410         1.147801        -0.051803
 O         1.642895         2.310722        -0.458725
 H        -0.544253         0.435921         0.718360
 H        -0.505838        -0.391504        -0.820951
 H        -0.305437        -1.304337         0.823292
 H         2.812022        -2.027450        -0.376576
 H         2.141550        -0.806030        -1.858998
 H         4.389893         0.502562        -1.033750
 H         3.875645        -1.156018         1.418342
 H         4.303136         0.603288         1.683281
 H         1.599983         0.033807         3.101500
 H         2.353308         2.809602        -0.879800
