19
Iteration:  3965
 C        -0.072915        -0.194395         0.283760
 C         1.366072        -0.076906         0.057650
 C         2.077052        -0.419949        -1.183680
 C         3.257366         0.489133        -0.664429
 C         3.721655        -0.245881         0.751996
 C         2.357505         0.037111         1.252774
 O         2.071519        -0.052875         2.559559
 C         2.235845         1.143675         0.229624
 O         1.906171         2.562418         0.164737
 H        -0.552302         0.755194         0.533905
 H        -0.513467        -0.436557        -0.683322
 H        -0.414509        -0.903245         1.119569
 H         2.495375        -1.437877        -1.328941
 H         1.575441        -0.115615        -2.109201
 H         4.044879         0.863287        -1.381007
 H         4.295534        -1.215089         0.846241
 H         4.264845         0.517931         1.199811
 H         1.920555        -0.885428         2.998433
 H         2.133512         2.869922         1.063099
