19
Iteration:  4556
 C        -0.110296        -0.382666         0.307516
 C         1.366854         0.050404        -0.074868
 C         2.004684        -0.108082        -1.356834
 C         3.339157         0.585415        -0.701353
 C         3.752663        -0.408332         0.498597
 C         2.421124        -0.029707         1.083534
 O         1.877558        -0.236396         2.409665
 C         2.250069         1.278670         0.330140
 O         2.134757         2.595546         0.822300
 H        -0.233905        -1.371028         0.818494
 H        -0.394616         0.346966         1.062201
 H        -0.883409        -0.468133        -0.459354
 H         2.279579        -1.024426        -1.867360
 H         1.405508         0.531395        -2.030971
 H         4.136971         1.096958        -1.378613
 H         3.880250        -1.536247         0.408692
 H         4.535121         0.014487         1.078371
 H         0.996735        -0.722680         2.389776
 H         2.004765         2.518728         1.816709
