19
Iteration:  2923
 C        -0.019367        -0.437837         0.506995
 C         1.405508        -0.148487         0.118213
 C         2.265663        -0.827237        -0.937146
 C         3.416631         0.122065        -0.582633
 C         3.814440        -0.135735         0.866365
 C         2.385286         0.358588         1.252613
 O         1.729545         0.545966         2.516369
 C         2.221838         1.155069        -0.020041
 O         1.729507         2.486581        -0.240564
 H        -0.775317        -0.325642        -0.301237
 H         0.027904        -1.406703         0.934388
 H        -0.176985         0.364914         1.294135
 H         2.501938        -1.875362        -0.654367
 H         1.946686        -0.939905        -1.982979
 H         4.068070         0.392134        -1.403060
 H         4.052730        -1.108462         1.013264
 H         4.589834         0.495138         1.419093
 H         2.337343         0.709545         3.277226
 H         2.387103         3.107118         0.101130
