19
Iteration:  3259
 C        -0.136153        -0.518646         0.352003
 C         1.359982        -0.091223         0.208218
 C         2.093207        -0.674784        -0.915459
 C         3.302482         0.310758        -0.643175
 C         3.799530        -0.176886         0.796270
 C         2.381171         0.277601         1.341944
 O         2.126998         0.357506         2.689165
 C         2.137191         1.215462         0.076952
 O         1.990460         2.545012        -0.260010
 H        -0.523520        -0.727763        -0.720750
 H        -0.410816        -1.329998         1.069810
 H        -0.753455         0.384161         0.596651
 H         2.261669        -1.734249        -0.598019
 H         1.676988        -0.709721        -1.953349
 H         4.038492         0.670727        -1.346291
 H         3.845005        -1.270493         1.051395
 H         4.432200         0.537142         1.190251
 H         1.225598        -0.070370         2.780827
 H         1.300727         2.678528        -0.954698
