19
Iteration:   525
 C        -0.052126        -0.488015         0.432700
 C         1.359270        -0.179767         0.003429
 C         2.328888        -0.995459        -0.837256
 C         3.444414         0.085066        -0.477633
 C         3.797752        -0.157641         1.112087
 C         2.324172         0.461169         1.270790
 O         1.473843         0.852343         2.306018
 C         2.281111         1.066962        -0.079515
 O         2.066270         2.489536        -0.248503
 H        -0.398758         0.441172         0.945218
 H        -0.813150        -0.675361        -0.347196
 H        -0.154643        -1.383599         1.054008
 H         2.469964        -2.053118        -0.397299
 H         2.051093        -1.156344        -1.913071
 H         4.075952         0.274166        -1.413424
 H         4.049490        -1.234516         1.279863
 H         4.649664         0.395627         1.486081
 H         1.811331         0.668006         3.161574
 H         2.009307         2.731264         0.682475
