19
Iteration:   370
 C        -0.005691        -0.054225         0.200944
 C         1.434084        -0.171291         0.232166
 C         2.413084        -0.879716        -0.698178
 C         3.478054         0.032982        -0.462104
 C         3.784639        -0.146047         1.060129
 C         2.330678         0.296758         1.400393
 O         1.691002         0.711608         2.546554
 C         2.328448         1.122249         0.015202
 O         1.679452         2.231672        -0.626691
 H        -0.362216         0.994833         0.339004
 H        -0.351314        -0.386962        -0.824374
 H        -0.479180        -0.619939         1.047425
 H         2.604007        -2.010136        -0.487683
 H         1.938790        -0.745667        -1.737235
 H         4.309478         0.039515        -1.104322
 H         3.879080        -1.236155         1.252071
 H         4.528621         0.404884         1.559244
 H         1.079528        -0.016849         2.924941
 H         1.962219         3.044417        -0.106019
