19
Iteration:  4294
 C        -0.133471        -0.166925         0.270196
 C         1.281003         0.047985        -0.061528
 C         2.172226        -0.296015        -1.345645
 C         3.309349         0.487294        -0.714813
 C         3.809906        -0.426273         0.544742
 C         2.349743        -0.003670         1.085063
 O         2.076636         0.015346         2.550168
 C         2.339841         1.185082         0.253543
 O         1.815238         2.393318         0.693873
 H        -0.228535        -1.270973         0.219851
 H        -0.266973         0.064620         1.334273
 H        -0.861876         0.441379        -0.211250
 H         2.572118        -1.326792        -1.570274
 H         1.567068         0.014176        -2.215998
 H         4.039367         1.056985        -1.281353
 H         3.915795        -1.523502         0.403290
 H         4.388370         0.070597         1.227231
 H         1.239066         0.412748         2.781669
 H         2.031031         2.546220         1.616267
