19
Iteration:  3948charge 0 multiplicity 1
 C        -0.138643        -0.158843         0.177294
 C         1.320113        -0.070405         0.110947
 C         2.160498        -0.560422        -1.209057
 C         3.316192         0.364503        -0.634193
 C         3.808629        -0.198239         0.613459
 C         2.422440         0.033687         1.214071
 O         2.083587         0.024391         2.692312
 C         2.163663         1.217524         0.229267
 O         1.845451         2.557321         0.260821
 H        -0.446623         0.615507         0.941510
 H        -0.663434         0.023006        -0.807900
 H        -0.498461        -1.081021         0.610301
 H         2.271688        -1.648373        -1.461582
 H         1.757374         0.017860        -2.080716
 H         3.955540         0.843261        -1.328621
 H         3.997203        -1.265448         0.533930
 H         4.673544         0.475698         1.101574
 H         1.522832        -0.754225         2.669761
 H         2.137957         2.891656         1.139832
