19
Iteration:  3045charge 0 multiplicity 1
 C        -0.036582        -0.267668         0.550069
 C         1.357890        -0.145355         0.054304
 C         2.296035        -0.862177        -0.993438
 C         3.343286         0.223584        -0.603369
 C         3.760727        -0.077120         0.929601
 C         2.436895         0.316439         1.252724
 O         1.905837         0.382367         2.562114
 C         2.175400         1.080799        -0.004296
 O         1.731559         2.414932        -0.166054
 H         0.200686        -0.599572         1.509202
 H        -0.511707         0.715735         0.607487
 H        -0.658586        -0.990882        -0.039756
 H         2.587438        -1.897709        -0.987708
 H         1.846807        -0.785798        -1.985930
 H         4.132825         0.804704        -1.145341
 H         4.006977        -1.079535         1.012844
 H         4.493156         0.677813         1.366890
 H         1.723351         1.337231         2.624422
 H         2.170477         2.795349        -0.949688
