19
Iteration:  1728charge 0 multiplicity 1
 C        -0.055815        -0.360966         0.310921
 C         1.411761        -0.306519         0.276224
 C         2.342914        -1.020536        -0.675267
 C         3.340238         0.148844        -0.536058
 C         3.736716         0.009399         0.969151
 C         2.342523         0.373146         1.349861
 O         2.061742         0.957856         2.525162
 C         2.132155         1.041625         0.009695
 O         1.750968         2.236615        -0.572700
 H        -0.527096         0.321566         1.023349
 H        -0.415092        -0.150459        -0.732586
 H        -0.534322        -1.349608         0.552777
 H         2.702261        -2.083679        -0.635348
 H         1.919088        -0.892644        -1.675001
 H         4.039729         0.491426        -1.228752
 H         4.001438        -0.960094         1.287525
 H         4.566878         0.735075         1.329859
 H         1.450898         0.420319         3.104200
 H         0.995755         2.710863        -0.155855
