19
Iteration:  2798charge 0 multiplicity 1
 C        -0.039319        -0.272690         0.304852
 C         1.427343        -0.230115         0.082531
 C         2.316277        -0.921034        -0.840221
 C         3.412057         0.148758        -0.625412
 C         3.819629        -0.164881         0.852930
 C         2.378053         0.372075         1.308472
 O         1.812618         0.713949         2.528892
 C         2.202070         1.078463         0.019326
 O         1.647828         2.303511        -0.120994
 H        -0.113520        -0.494561         1.376958
 H        -0.407901         0.789049         0.078500
 H        -0.471505        -0.983323        -0.371474
 H         2.577129        -1.940414        -0.478061
 H         1.979014        -0.883970        -1.901130
 H         4.014859         0.364094        -1.530784
 H         4.080462        -1.204224         0.982025
 H         4.653065         0.455443         1.266983
 H         2.268206         1.436301         3.008567
 H         2.046238         3.017701         0.383350
