19
Iteration:  1625
 C        -0.084941        -0.586415         0.453630
 C         1.363307        -0.207941         0.145851
 C         2.294677        -0.995270        -0.819394
 C         3.347224         0.148545        -0.516790
 C         3.727296         0.061866         1.032702
 C         2.282074         0.432446         1.319755
 O         1.865650         0.840332         2.643170
 C         2.120092         1.062673        -0.025832
 O         2.068379         2.385893        -0.616022
 H        -0.835799         0.226361         0.485045
 H        -0.448780        -1.370394        -0.178628
 H         0.043157        -1.028906         1.418930
 H         2.582399        -2.057456        -0.627791
 H         1.909188        -0.851036        -1.867161
 H         3.752252         0.655297        -1.522290
 H         4.150428        -0.895071         1.487304
 H         4.337289         0.899894         1.380519
 H         2.019152         0.243278         3.368124
 H         1.156844         2.548443        -0.893758
