19
Iteration:  1280charge 0 multiplicity 1
 C        -0.023593        -0.256454         0.299451
 C         1.453770        -0.194761         0.066139
 C         2.421963        -1.038597        -0.676794
 C         3.425222         0.164847        -0.437923
 C         3.772801        -0.005071         1.098041
 C         2.292508         0.312438         1.326829
 O         1.664718         0.699902         2.445054
 C         2.187176         1.093961        -0.061232
 O         1.749223         2.362945        -0.424806
 H        -0.292532         0.394132         1.136463
 H        -0.686860         0.052781        -0.537687
 H        -0.219897        -1.296941         0.692605
 H         2.728521        -1.934695         0.039555
 H         2.462130        -1.101874        -1.811512
 H         4.278198         0.422768        -1.178601
 H         4.300596        -0.975662         1.313410
 H         4.411412         0.814349         1.380402
 H         2.092140         0.253973         3.167375
 H         2.126824         2.422914        -1.335176
