19
Iteration:    59
 C        -0.149063        -0.719931         0.420301
 C         1.259612        -0.115580         0.031002
 C         2.327586        -1.029619        -0.834706
 C         3.377534         0.079210        -0.435601
 C         3.577355        -0.114374         1.066570
 C         2.176570         0.333980         1.180213
 O         1.836609         0.954212         2.479726
 C         2.192190         1.146899        -0.203163
 O         2.348186         2.567347        -0.182302
 H        -1.059725        -0.173309         0.797381
 H        -0.403029        -1.301162        -0.508708
 H         0.035471        -1.580722         1.137797
 H         2.551783        -1.938233        -0.394136
 H         2.248880        -1.238505        -1.952083
 H         4.090077         0.448260        -1.174717
 H         3.974883        -0.996611         1.660796
 H         4.279639         0.725158         1.366367
 H         0.885744         0.694512         2.651388
 H         1.513063         3.038777        -0.470930
