19
Iteration:  4774
 C        -0.135051        -0.427167         0.046367
 C         1.212519         0.218853        -0.078281
 C         2.037208         0.029983        -1.349594
 C         3.188688         0.645383        -0.632815
 C         3.685976        -0.356171         0.457103
 C         2.390027        -0.045325         1.185871
 O         2.023541        -0.414399         2.512693
 C         2.179879         1.254085         0.415671
 O         2.306026         2.528351         0.833295
 H        -0.216252        -1.503585        -0.106375
 H        -0.639069        -0.157684         1.009153
 H        -0.683066         0.064778        -0.781911
 H         1.864518        -1.062391        -1.546209
 H         1.675746         0.782644        -2.054550
 H         3.812953         1.247880        -1.262718
 H         3.769476        -1.461853         0.218968
 H         4.522973         0.102404         0.893308
 H         1.580971        -1.266403         2.414081
 H         2.543976         2.553096         1.749633
