19
Iteration:  4580
 C        -0.094368        -0.247877         0.363863
 C         1.379475         0.133759        -0.063851
 C         2.152048        -0.130621        -1.323899
 C         3.254011         0.607273        -0.634286
 C         3.664527        -0.423323         0.431865
 C         2.425033        -0.058385         1.090368
 O         1.957110        -0.344421         2.390337
 C         2.273414         1.235675         0.379301
 O         2.026308         2.561565         0.735461
 H        -0.258033        -0.917587         1.259263
 H        -0.770650         0.555182         0.505195
 H        -0.487894        -0.995068        -0.307542
 H         2.294146        -1.082355        -1.704968
 H         1.792514         0.568123        -2.098792
 H         3.851111         1.377425        -1.110015
 H         3.693360        -1.441319         0.024951
 H         4.484710        -0.197250         1.063364
 H         1.008273        -0.447650         2.340933
 H         2.222028         2.661994         1.684374
