19
Iteration:  2660charge 0 multiplicity 1
 C        -0.055170        -0.249225         0.468180
 C         1.408546        -0.168297         0.159374
 C         2.417157        -0.891393        -0.858381
 C         3.440508         0.126112        -0.547756
 C         3.794868        -0.131502         0.929824
 C         2.397834         0.373040         1.297719
 O         1.769472         0.578372         2.560417
 C         2.206876         1.107133        -0.052313
 O         1.708958         2.326336        -0.299982
 H        -0.663868         0.382889        -0.204775
 H        -0.520608        -1.214408         0.410721
 H        -0.216844         0.155727         1.487311
 H         2.625465        -1.953801        -0.755390
 H         2.093755        -0.642189        -1.894368
 H         4.208006         0.462350        -1.290280
 H         4.028793        -1.256862         1.275523
 H         4.596546         0.608630         1.203201
 H         1.659818         1.556007         2.654087
 H         1.403317         2.397043        -1.235712
