19
Iteration:  2855
 C        -0.105625        -0.098110         0.329869
 C         1.368174        -0.196562         0.150921
 C         2.375739        -0.848420        -0.958782
 C         3.368976         0.274086        -0.526816
 C         3.723554        -0.046796         0.944324
 C         2.347571         0.304171         1.413768
 O         2.066993         0.324134         2.791548
 C         2.167524         1.091035         0.010225
 O         1.647005         2.284562        -0.512946
 H        -0.707377         0.728851         0.820844
 H        -0.628914        -0.246142        -0.644424
 H        -0.483259        -0.971671         0.877584
 H         2.620581        -1.919672        -0.897354
 H         2.006891        -0.785158        -1.997570
 H         4.069841         0.682727        -1.285882
 H         4.013823        -0.992870         1.167390
 H         4.590418         0.671116         1.286290
 H         2.045039         1.264023         3.034601
 H         2.293958         3.026773        -0.604638
