19
Iteration:  3650
 C        -0.084707        -0.400305         0.372324
 C         1.351552        -0.064991         0.070978
 C         2.161184        -0.641776        -1.141774
 C         3.376592         0.355461        -0.600337
 C         3.745838        -0.280383         0.828480
 C         2.433079         0.275348         1.258560
 O         2.000811         0.211141         2.595468
 C         2.151445         1.236699         0.115955
 O         1.920097         2.590765         0.046279
 H        -0.336951        -1.369902         0.068094
 H        -0.118790        -0.347976         1.493614
 H        -0.854499         0.173303        -0.064594
 H         2.126406        -1.710960        -1.211547
 H         1.715011        -0.247742        -2.051775
 H         4.089263         0.862016        -1.286250
 H         3.825079        -1.348410         0.849322
 H         4.529211         0.210720         1.565076
 H         1.613371        -0.693496         2.738374
 H         1.270392         2.855778        -0.634485
