19
Iteration:  4950
 C        -0.082350        -0.325804         0.241795
 C         1.320456         0.184852        -0.075112
 C         2.029303         0.101250        -1.419667
 C         3.227517         0.734719        -0.679978
 C         3.704335        -0.433334         0.317722
 C         2.386959        -0.165948         1.058922
 O         1.873715        -0.449591         2.395328
 C         2.221648         1.223593         0.454839
 O         2.274995         2.560161         1.056573
 H        -0.745978        -0.101875        -0.612344
 H        -0.019951        -1.384661         0.516315
 H        -0.506820         0.171207         1.120316
 H         2.088047        -0.905491        -1.792451
 H         1.576733         0.701713        -2.221050
 H         4.138930         1.200207        -1.101178
 H         3.877788        -1.470841        -0.028868
 H         4.631633        -0.201147         0.767950
 H         1.686102        -1.420739         2.505120
 H         1.413946         2.767912         1.435764
