19
Iteration:  2320charge 0 multiplicity 1
 C        -0.107277        -0.685532         0.463166
 C         1.307590        -0.173878         0.212268
 C         2.215379        -1.027542        -0.648138
 C         3.327973         0.040720        -0.537376
 C         3.868007         0.078686         0.966780
 C         2.333989         0.579903         1.253073
 O         1.884596         0.815235         2.512459
 C         2.083521         1.115568        -0.081170
 O         2.052933         2.428922        -0.453661
 H        -0.544108        -0.501768         1.403593
 H        -0.808561        -0.143445        -0.135361
 H        -0.316827        -1.723656         0.209848
 H         2.679696        -1.956020        -0.224933
 H         1.759461        -1.280251        -1.585533
 H         4.061399         0.164421        -1.319715
 H         4.364864        -0.985974         1.281091
 H         4.566277         0.849758         1.241762
 H         1.011147         1.184863         2.647341
 H         2.082049         2.334595        -1.431097
