19
Iteration:  3857charge 0 multiplicity 1
 C        -0.086607        -0.304513         0.318990
 C         1.338174        -0.051518         0.070524
 C         2.156424        -0.506680        -1.136870
 C         3.287200         0.444610        -0.664036
 C         3.815619        -0.333134         0.630764
 C         2.402082         0.021073         1.237537
 O         1.928893         0.202966         2.566634
 C         2.150519         1.191318         0.210697
 O         1.963534         2.544787         0.174738
 H        -0.437470        -1.359402         0.155425
 H        -0.171512        -0.100043         1.421881
 H        -0.767525         0.468429        -0.109926
 H         2.505265        -1.572255        -1.272120
 H         1.774095        -0.052223        -2.087099
 H         4.042950         0.998423        -1.295264
 H         4.156541        -1.408904         0.737524
 H         4.562129         0.380573         1.193147
 H         1.894919        -0.712473         2.933841
 H         1.604034         2.825996         1.026152
