19
Iteration:  4271
 C        -0.164071        -0.178866         0.267720
 C         1.300993        -0.088527        -0.020236
 C         2.183238        -0.341711        -1.282474
 C         3.321619         0.487135        -0.628551
 C         3.780252        -0.338447         0.568622
 C         2.408362        -0.025361         1.067605
 O         2.138973         0.001115         2.475611
 C         2.153459         1.194024         0.217747
 O         1.851980         2.518010         0.699552
 H        -0.544122        -0.924083        -0.406021
 H        -0.453703        -0.517225         1.266728
 H        -0.544023         0.830353         0.191293
 H         2.368340        -1.440756        -1.473549
 H         1.987211         0.166796        -2.247806
 H         4.007930         0.745368        -1.372664
 H         3.650605        -1.397844         0.352025
 H         4.511706         0.005363         1.194583
 H         1.146030         0.046802         2.477760
 H         2.417543         2.638072         1.521510
