19
Iteration:  1545charge 0 multiplicity 1
 C        -0.093610        -0.306621         0.473600
 C         1.444454        -0.352790         0.176174
 C         2.425075        -1.094523        -0.755104
 C         3.465326         0.135006        -0.468632
 C         3.831821         0.069994         1.077154
 C         2.313220         0.400695         1.187364
 O         1.799488         0.915094         2.341469
 C         2.176399         1.023211        -0.134286
 O         1.747273         2.296843        -0.247983
 H        -0.200391         0.464437         1.224933
 H        -0.561770         0.030853        -0.432223
 H        -0.579519        -1.178401         0.877585
 H         2.581837        -2.166515        -0.529565
 H         1.921568        -1.054552        -1.736660
 H         4.321202         0.233549        -1.162557
 H         4.368986        -0.925049         1.335318
 H         4.421026         0.902979         1.352837
 H         1.017195         0.466090         2.640629
 H         1.410800         2.311562        -1.171991
