19
Iteration:  3746
 C        -0.063254        -0.218404         0.366819
 C         1.380320        -0.040326         0.017667
 C         2.214818        -0.595857        -1.206733
 C         3.338590         0.324410        -0.757936
 C         3.809117        -0.361335         0.803584
 C         2.442418         0.109954         1.229074
 O         1.966159         0.346775         2.557821
 C         2.280052         1.184198         0.115247
 O         1.686263         2.443640         0.360553
 H        -0.435415         0.616893         0.988328
 H        -0.664545        -0.134271        -0.528103
 H        -0.174265        -1.049808         1.104749
 H         2.577976        -1.667686        -1.206693
 H         1.841122        -0.359554        -2.227061
 H         4.228676         0.691504        -1.295328
 H         4.154417        -1.414819         0.771205
 H         4.565997         0.288668         1.206510
 H         1.320484        -0.361270         2.783540
 H         1.523296         2.878544        -0.512973
