19
Iteration:  2842
 C        -0.089097        -0.169823         0.231223
 C         1.439707        -0.161477         0.175530
 C         2.260992        -0.846423        -0.866797
 C         3.358709         0.241754        -0.516379
 C         3.779787        -0.086394         0.955632
 C         2.376106         0.326548         1.318031
 O         2.067562         0.380265         2.713391
 C         2.153847         1.110696         0.024540
 O         1.587476         2.255700        -0.437230
 H        -0.087982         0.670787         0.935379
 H        -0.555091         0.250122        -0.748946
 H        -0.561434        -1.068652         0.576649
 H         2.638756        -1.859819        -0.700408
 H         1.749748        -0.533012        -1.777871
 H         4.236234         0.597595        -1.117515
 H         4.127085        -1.152880         1.171355
 H         4.447777         0.756382         1.370907
 H         1.996584         1.304220         3.026125
 H         2.358436         2.829250        -0.442830
