19
Iteration:  2500
 C        -0.046923        -0.576285         0.617911
 C         1.403704        -0.160874         0.121081
 C         2.353974        -0.931085        -0.838389
 C         3.446272         0.070076        -0.595003
 C         3.754609        -0.097174         0.937812
 C         2.334057         0.406934         1.256895
 O         1.608303         0.751896         2.431225
 C         2.159932         1.127919        -0.077063
 O         1.999741         2.483779        -0.272494
 H        -0.193760        -1.569377         0.289143
 H        -0.114972        -0.566618         1.716633
 H        -0.704891         0.157009         0.137141
 H         2.619954        -1.959746        -0.480837
 H         1.822703        -1.066915        -1.763473
 H         4.274752         0.382356        -1.233087
 H         3.971897        -1.113678         1.280383
 H         4.539941         0.777211         1.196839
 H         2.052010         1.555948         2.802864
 H         1.332064         2.534525        -0.997810
