19
Iteration:  4857
 C        -0.092921         0.228231         0.316756
 C         1.389141         0.033083        -0.070200
 C         2.115194        -0.057626        -1.380701
 C         3.367284         0.590725        -0.637096
 C         3.788907        -0.389413         0.362551
 C         2.441119        -0.187044         1.065536
 O         2.064855        -0.508642         2.374984
 C         2.236648         1.219003         0.460442
 O         1.716245         2.378672         0.961562
 H        -0.029593         0.502930         1.382359
 H        -0.651625         0.995640        -0.220425
 H        -0.684633        -0.702191         0.306572
 H         2.122253        -1.051022        -1.883836
 H         1.756127         0.583816        -2.240182
 H         4.116958         1.031472        -1.350614
 H         4.069178        -1.404219         0.175258
 H         4.686318         0.057233         0.913820
 H         1.669282        -1.385660         2.386829
 H         1.708045         3.144777         0.344031
