19
Iteration:  2254
 C        -0.080674        -0.350559         0.480330
 C         1.402517        -0.239299         0.182570
 C         2.368979        -1.061664        -0.778456
 C         3.546807         0.070369        -0.507464
 C         3.820428        -0.161038         0.979349
 C         2.405535         0.451894         1.266187
 O         1.804775         1.036653         2.338828
 C         2.201880         1.036623        -0.084552
 O         1.624300         2.245073        -0.250258
 H        -0.238829         0.004545         1.474738
 H        -0.574500         0.361924        -0.184534
 H        -0.521108        -1.312030         0.307551
 H         2.753547        -1.990708        -0.341467
 H         1.927754        -1.198939        -1.748260
 H         4.372831         0.141106        -1.232753
 H         4.047654        -1.167038         1.547891
 H         4.658402         0.364553         1.307942
 H         2.020561         1.994950         2.437302
 H         0.897858         2.311753        -0.873954
