19
Iteration:  3576
 C        -0.125375        -0.341963         0.310068
 C         1.302230        -0.099609         0.042180
 C         2.206011        -0.811754        -1.051167
 C         3.380256         0.300223        -0.683040
 C         3.787180        -0.110876         0.744563
 C         2.321119         0.153550         1.222738
 O         1.979807         0.431452         2.588755
 C         2.247644         1.165333         0.074478
 O         1.889334         2.508390         0.254025
 H        -0.730090         0.522823        -0.109281
 H        -0.485517        -1.291880        -0.197507
 H        -0.387262        -0.390319         1.368478
 H         2.494955        -1.902950        -1.029123
 H         1.723389        -0.599856        -2.044963
 H         4.221983         0.535247        -1.392551
 H         4.316530        -1.041629         0.821711
 H         4.430771         0.690456         1.191636
 H         1.951007        -0.399521         3.101253
 H         1.334113         2.754368        -0.523006
