19
Iteration:  4481
 C        -0.146677        -0.098915         0.034646
 C         1.313657         0.044905        -0.021511
 C         2.071281        -0.251666        -1.309606
 C         3.289292         0.553361        -0.718380
 C         3.738649        -0.365749         0.517149
 C         2.368591        -0.057384         1.204754
 O         2.119195        -0.136880         2.512016
 C         2.193298         1.202081         0.341221
 O         1.947159         2.443146         0.798292
 H        -0.629458        -0.260834        -0.959527
 H        -0.375094        -0.940306         0.695450
 H        -0.684612         0.703136         0.542014
 H         2.185477        -1.310581        -1.588873
 H         1.718844         0.312948        -2.218596
 H         3.948520         1.151547        -1.446212
 H         4.027164        -1.411632         0.323364
 H         4.513348         0.116236         1.082788
 H         2.403671        -0.957908         2.883477
 H         2.098843         2.335104         1.738766
