19
Iteration:  1805charge 0 multiplicity 1
 C        -0.002836        -0.413989         0.640648
 C         1.414679        -0.227624         0.164536
 C         2.354310        -1.039519        -0.753457
 C         3.347858         0.097303        -0.555539
 C         3.782875        -0.021777         0.897588
 C         2.328984         0.478649         1.269513
 O         1.726149         0.762460         2.531151
 C         2.147656         1.098979        -0.098164
 O         1.919053         2.366873        -0.471941
 H        -0.159243         0.185574         1.556895
 H        -0.844401        -0.216374        -0.024421
 H        -0.182008        -1.441302         1.013898
 H         2.596384        -2.082318        -0.405321
 H         2.070990        -1.084900        -1.822290
 H         4.141332         0.155122        -1.292242
 H         3.970875        -1.081049         0.985510
 H         4.605548         0.612660         1.491810
 H         1.748478         1.725620         2.655775
 H         1.444411         2.466684        -1.322750
