19
Iteration:  3932charge 0 multiplicity 1
 C        -0.224120        -0.144061         0.213871
 C         1.330804        -0.064901        -0.041952
 C         2.183144        -0.511309        -1.117987
 C         3.288101         0.410320        -0.710702
 C         3.849906        -0.330187         0.654059
 C         2.510317         0.184032         1.315315
 O         2.098615         0.081553         2.579987
 C         2.194584         1.175829         0.193628
 O         1.768683         2.460228         0.359635
 H        -0.601715         0.323163         1.120945
 H        -0.662405         0.417642        -0.610667
 H        -0.598030        -1.187895        -0.012774
 H         2.491022        -1.567233        -1.004523
 H         1.665550        -0.354019        -2.076209
 H         4.053410         0.864353        -1.416543
 H         4.175528        -1.404877         0.562388
 H         4.674840         0.141506         1.084692
 H         1.288320        -0.438485         2.703834
 H         2.249706         2.862289         1.128470
