19
Iteration:  4478charge 0 multiplicity 1
 C        -0.139896        -0.102929         0.037810
 C         1.322793         0.075392        -0.031104
 C         2.044451        -0.265886        -1.323168
 C         3.283800         0.550769        -0.703269
 C         3.757761        -0.364040         0.519198
 C         2.372961        -0.072798         1.204998
 O         2.117076        -0.132812         2.515153
 C         2.213243         1.220461         0.332792
 O         1.925659         2.426785         0.789135
 H        -0.567826        -0.171444        -0.939229
 H        -0.425105        -0.930526         0.676039
 H        -0.615165         0.697584         0.618720
 H         2.206945        -1.266558        -1.604462
 H         1.752276         0.317021        -2.180109
 H         3.843454         1.147865        -1.458346
 H         4.069595        -1.428801         0.346017
 H         4.519565         0.026702         1.183354
 H         2.378505        -1.012714         2.888849
 H         2.097395         2.382889         1.748641
