19
Iteration:   634
 C        -0.059206        -0.247253         0.130979
 C         1.465838        -0.089398         0.215579
 C         2.337455        -0.905484        -0.758971
 C         3.479834         0.139503        -0.364028
 C         3.710783        -0.167484         1.179545
 C         2.373707         0.518124         1.344220
 O         1.774800         0.577559         2.577510
 C         2.255861         1.206269         0.031283
 O         1.662391         2.207637        -0.644912
 H        -0.498168         0.537701         0.793204
 H        -0.491002         0.089551        -0.820401
 H        -0.464602        -1.210399         0.405303
 H         2.483325        -1.870861        -0.429303
 H         2.037029        -0.843813        -1.869972
 H         4.375306         0.211071        -1.095924
 H         3.680051        -1.292964         1.496098
 H         4.656727         0.284240         1.492314
 H         2.338756         0.159522         3.244951
 H         2.303835         2.891682        -0.913511
