19
Iteration:  3315
 C        -0.074193        -0.137343         0.520303
 C         1.429661        -0.158649         0.123948
 C         2.274092        -0.842651        -0.994728
 C         3.320104         0.294442        -0.579924
 C         3.897393        -0.167092         0.757764
 C         2.393968         0.207794         1.235733
 O         1.829300         0.436762         2.485108
 C         2.185529         1.123950         0.043329
 O         1.724327         2.411605        -0.135384
 H        -0.699119        -0.957198        -0.023007
 H        -0.149459        -0.492076         1.530710
 H        -0.442433         0.917374         0.429236
 H         2.631376        -1.862479        -0.839786
 H         1.983474        -0.501481        -1.988164
 H         4.084255         0.616701        -1.320775
 H         4.345383        -1.215523         1.008648
 H         4.611411         0.411544         1.205890
 H         1.985942        -0.353094         3.054281
 H         1.863269         2.983926         0.634302
