19
Iteration:  1865
 C        -0.170436        -0.469884         0.373010
 C         1.417575        -0.242310         0.209509
 C         2.367420        -1.127096        -0.754326
 C         3.352170         0.041896        -0.616120
 C         3.744898        -0.007393         0.956254
 C         2.372680         0.457452         1.272315
 O         1.971012         0.966126         2.487642
 C         2.133771         1.049973        -0.085860
 O         1.812820         2.359526        -0.209749
 H        -0.729159         0.495384         0.484208
 H        -0.605011        -1.105889        -0.473636
 H        -0.236117        -1.051259         1.344263
 H         2.718577        -2.152747        -0.532977
 H         1.884443        -1.136393        -1.792190
 H         4.252075         0.276911        -1.206965
 H         4.019392        -1.066669         1.304202
 H         4.499723         0.661307         1.235092
 H         2.095503         1.919063         2.411332
 H         1.144750         2.493755        -0.901239
