19
Iteration:  3355charge 0 multiplicity 1
 C        -0.068700        -0.249210         0.316902
 C         1.395627        -0.166332         0.104861
 C         2.226009        -0.807037        -1.034451
 C         3.387762         0.218815        -0.548677
 C         3.800675        -0.255115         0.843460
 C         2.431568         0.256688         1.217126
 O         2.015895         0.644625         2.503721
 C         2.207348         1.097861         0.004544
 O         1.613266         2.387533         0.145254
 H        -0.421619        -1.013016        -0.364866
 H        -0.332623        -0.676148         1.346458
 H        -0.607737         0.637378         0.060023
 H         2.356174        -1.911953        -1.024408
 H         1.929473        -0.468395        -2.056597
 H         4.090954         0.553062        -1.285009
 H         3.984912        -1.315473         0.864328
 H         4.491366         0.641232         1.157502
 H         1.935997        -0.155732         3.058851
 H         2.139510         3.017873        -0.400151
