19
Iteration:  3806
 C        -0.071636        -0.419396         0.359140
 C         1.259902         0.070445        -0.007837
 C         2.075766        -0.540859        -1.089901
 C         3.263513         0.363066        -0.594105
 C         3.759059        -0.158848         0.759212
 C         2.381939         0.142376         1.257595
 O         1.978905         0.026425         2.575117
 C         2.184567         1.246669         0.212776
 O         2.109223         2.605054         0.086021
 H        -0.696815        -0.175780        -0.523812
 H        -0.073790        -1.508422         0.681040
 H        -0.546009         0.005197         1.227706
 H         2.230031        -1.602499        -0.997987
 H         1.880044        -0.251969        -2.121897
 H         4.039147         0.711751        -1.257791
 H         4.144406        -1.169996         0.562284
 H         4.565855         0.503267         1.212787
 H         1.819213        -0.918740         2.662256
 H         1.200877         2.833705        -0.199502
