19
Iteration:   405charge 0 multiplicity 1
 C        -0.045607         0.046944         0.192196
 C         1.441077        -0.238149         0.092427
 C         2.423890        -1.047169        -0.814508
 C         3.484803         0.049424        -0.477064
 C         3.798801         0.001421         1.256499
 C         2.315314         0.328731         1.336108
 O         1.791276         0.673274         2.613173
 C         2.185154         0.962423        -0.089821
 O         1.679978         2.257120        -0.430854
 H        -0.183533         0.956766         0.865342
 H        -0.494825         0.410705        -0.779029
 H        -0.711279        -0.800291         0.496610
 H         2.797610        -2.114277        -0.569930
 H         2.133515        -0.969689        -1.856006
 H         4.336399         0.339437        -1.157009
 H         3.947423        -1.035461         1.599738
 H         4.592944         0.675321         1.558033
 H         0.800634         0.789333         2.761621
 H         2.195038         2.577511        -1.211018
