19
Iteration:  4868
 C        -0.123867         0.208252         0.337697
 C         1.330617        -0.008892         0.001177
 C         2.158470        -0.069764        -1.343493
 C         3.291091         0.669869        -0.665681
 C         3.835206        -0.462058         0.431037
 C         2.415706        -0.132693         1.045153
 O         2.107151        -0.559806         2.362436
 C         2.252808         1.203616         0.328752
 O         1.737187         2.430634         0.979139
 H        -0.344743         0.937951         1.123846
 H        -0.460503         0.713039        -0.584609
 H        -0.723459        -0.711583         0.430595
 H         2.292732        -1.061736        -1.863430
 H         1.713123         0.784633        -1.945392
 H         4.004605         1.354900        -1.215377
 H         3.960380        -1.401163        -0.069177
 H         4.623558        -0.074651         1.167533
 H         1.687973        -1.461863         2.257809
 H         2.021773         3.021743         0.225362
