19
Iteration:  4711
 C        -0.087919        -0.137460         0.301432
 C         1.347676         0.171881        -0.126608
 C         2.089143        -0.105425        -1.452189
 C         3.329285         0.614406        -0.692591
 C         3.755853        -0.424851         0.432358
 C         2.495355        -0.106369         1.160774
 O         1.877686        -0.308966         2.394284
 C         2.269767         1.187035         0.428269
 O         1.912573         2.441506         0.886126
 H        -0.828597         0.083788        -0.527985
 H        -0.267303        -1.072563         0.825553
 H        -0.359020         0.642379         1.051153
 H         2.185838        -1.160003        -1.846715
 H         1.872266         0.665465        -2.285512
 H         4.105346         1.260797        -0.949167
 H         3.945770        -1.487745         0.113057
 H         4.683366        -0.030469         0.866460
 H         1.381110        -1.109718         2.598698
 H         2.448818         2.646862         1.643899
