19
Iteration:  3473
 C         0.005398        -0.224174         0.527415
 C         1.414198        -0.166439         0.088480
 C         2.300753        -0.705502        -1.071199
 C         3.401347         0.300499        -0.594548
 C         3.769658        -0.211850         0.782318
 C         2.424578         0.192288         1.296302
 O         1.819646         0.355318         2.560850
 C         2.156836         1.174748         0.061603
 O         1.829198         2.529551        -0.096710
 H         0.001510        -0.881151         1.392924
 H        -0.540806         0.698253         0.928659
 H        -0.571181        -0.886370        -0.187512
 H         2.440686        -1.808975        -1.038986
 H         1.795227        -0.471731        -2.022305
 H         4.104221         0.624778        -1.342784
 H         3.901609        -1.289298         0.734414
 H         4.608631         0.398841         1.222876
 H         1.460190        -0.514572         2.881427
 H         0.951875         2.632365        -0.502261
