19
Iteration:  2756charge 0 multiplicity 1
 C        -0.098375        -0.595725         0.515023
 C         1.334179        -0.216337         0.080056
 C         2.294986        -0.874601        -0.853873
 C         3.397159         0.145453        -0.576775
 C         3.756526        -0.033469         0.903088
 C         2.304395         0.316222         1.199952
 O         1.743246         0.754307         2.465067
 C         2.203477         1.109408        -0.069278
 O         1.981495         2.460996        -0.214662
 H        -0.293418        -1.709945         0.807129
 H        -0.377781         0.069674         1.410487
 H        -0.833380        -0.281544        -0.258593
 H         2.511877        -1.955698        -0.744109
 H         1.987646        -0.698413        -1.914444
 H         4.209984         0.313574        -1.330776
 H         4.010099        -0.939855         1.266259
 H         4.513249         0.769358         1.315435
 H         2.609368         0.988715         2.887272
 H         1.951140         2.761904         0.735683
