19
Iteration:  3841charge 0 multiplicity 1
 C        -0.168466        -0.360842         0.415890
 C         1.362908        -0.126941         0.052453
 C         2.193772        -0.563078        -1.177396
 C         3.275225         0.403800        -0.639789
 C         3.710890        -0.208022         0.671843
 C         2.352675         0.092547         1.257932
 O         1.930041         0.092188         2.590278
 C         2.269216         1.242065         0.211024
 O         2.057616         2.703841         0.131585
 H        -0.445525        -1.129088        -0.312974
 H        -0.471955        -0.842955         1.340907
 H        -0.697112         0.532725         0.027508
 H         2.461543        -1.616528        -1.178766
 H         1.646556        -0.357799        -2.087153
 H         3.951095         0.771203        -1.376495
 H         4.083210        -1.219535         0.324722
 H         4.509488         0.269731         1.115816
 H         2.126271        -0.786284         2.954931
 H         1.288898         2.861428         0.722961
