19
Iteration:   132
 C        -0.088225        -0.089293         0.320125
 C         1.413666        -0.171464         0.144629
 C         2.405365        -0.950254        -0.835969
 C         3.447176         0.085605        -0.414364
 C         3.703248        -0.113070         1.103054
 C         2.285491         0.329761         1.334294
 O         1.765735         0.751531         2.522582
 C         2.252181         1.060021        -0.021589
 O         1.789789         2.227517        -0.482092
 H        -0.403912         0.576776         1.101313
 H        -0.519638         0.233021        -0.605817
 H        -0.545763        -1.037562         0.437994
 H         2.636568        -2.066218        -0.687919
 H         2.123047        -0.863114        -1.879238
 H         4.314803         0.328229        -0.974440
 H         4.118723        -1.046323         1.361852
 H         4.371124         0.614649         1.506322
 H         1.751317        -0.031800         3.077285
 H         2.428878         2.781216        -0.978562
