19
Iteration:  4251charge 0 multiplicity 1
 C        -0.140418        -0.185862         0.173129
 C         1.397362        -0.014597         0.025244
 C         2.083418        -0.423235        -1.267858
 C         3.287867         0.520696        -0.750229
 C         3.745107        -0.320731         0.575160
 C         2.386780         0.019701         1.221358
 O         2.072916        -0.074606         2.540643
 C         2.248476         1.200179         0.271180
 O         1.899949         2.518096         0.612605
 H        -0.617355        -0.505161        -0.784549
 H        -0.446751        -0.978498         0.893389
 H        -0.517868         0.714076         0.613338
 H         2.233659        -1.504906        -1.459089
 H         1.494729         0.037300        -2.068712
 H         4.027192         1.095791        -1.302202
 H         4.244217        -1.321910         0.407968
 H         4.401467         0.459641         0.878170
 H         1.209842        -0.487700         2.645771
 H         2.510732         2.797305         1.341856
