19
Iteration:  3987charge 0 multiplicity 1
 C        -0.201271        -0.218292         0.424075
 C         1.332507        -0.014368        -0.010387
 C         2.214941        -0.464260        -1.194723
 C         3.316404         0.433316        -0.560942
 C         3.826535        -0.268295         0.660972
 C         2.406926         0.143099         1.247960
 O         1.948155        -0.083091         2.514464
 C         2.200382         1.177120         0.234756
 O         1.901720         2.577740         0.157142
 H        -0.918497         0.589319         0.282002
 H        -0.584353        -1.046853        -0.186969
 H        -0.222834        -0.536850         1.505916
 H         2.295905        -1.510430        -1.508697
 H         1.861683         0.138678        -2.035369
 H         4.008950         1.058269        -1.170545
 H         4.050649        -1.313962         0.334971
 H         4.644558         0.117559         1.192407
 H         2.135959        -0.996594         2.849361
 H         2.173464         3.088085         0.949888
