19
Iteration:  4570charge 0 multiplicity 1
 C        -0.043907        -0.294102         0.389143
 C         1.317333        -0.008750         0.018888
 C         2.096532        -0.079742        -1.362248
 C         3.265102         0.610976        -0.603410
 C         3.703728        -0.451658         0.487295
 C         2.391427         0.012889         1.097995
 O         1.940106        -0.290071         2.289501
 C         2.220377         1.276100         0.355110
 O         2.087489         2.563634         0.767016
 H        -0.082898        -1.100285         1.145586
 H        -0.662992         0.545294         0.577744
 H        -0.418500        -0.644679        -0.564941
 H         2.197803        -1.071999        -1.676791
 H         1.710520         0.512276        -2.203897
 H         4.076430         1.081376        -1.116771
 H         3.787918        -1.434238         0.067490
 H         4.639390        -0.218878         0.976265
 H         1.012929        -0.455976         2.167865
 H         2.101628         2.578241         1.722718
