19
Iteration:   197charge 0 multiplicity 1
 C        -0.026931        -0.112769         0.097412
 C         1.434930        -0.141657         0.254403
 C         2.216620        -1.006463        -0.676799
 C         3.364797         0.111311        -0.467142
 C         3.821357        -0.054184         1.026936
 C         2.383684         0.345625         1.371174
 O         1.845054         0.679592         2.685171
 C         2.228066         1.090148         0.005276
 O         1.862079         2.281879        -0.523796
 H        -0.646336         0.491553         0.771713
 H        -0.141414         0.332521        -0.929697
 H        -0.377424        -1.130431         0.011555
 H         2.326246        -2.108027        -0.617874
 H         1.868901        -0.799817        -1.642750
 H         4.004241         0.264708        -1.298392
 H         4.161731        -1.143237         1.161637
 H         4.531052         0.643333         1.444765
 H         1.071034         0.126902         2.754740
 H         1.027439         2.128710        -0.990292
