19
Iteration:  1945
 C        -0.071516        -0.318105         0.662344
 C         1.387044        -0.237356         0.134386
 C         2.359767        -1.002304        -0.768439
 C         3.378748         0.154499        -0.506975
 C         3.805755        -0.016108         0.956252
 C         2.378198         0.436202         1.274864
 O         1.810006         0.720885         2.575635
 C         2.186681         1.066299        -0.050666
 O         1.807254         2.284512        -0.636589
 H        -0.443600         0.598516         1.144366
 H        -0.566845        -0.487672        -0.364461
 H        -0.325268        -1.196642         1.259087
 H         2.671060        -1.998384        -0.385630
 H         2.142135        -0.983287        -1.844447
 H         4.052558         0.510328        -1.318281
 H         4.181440        -1.000100         1.214223
 H         4.539431         0.701434         1.278616
 H         2.121750         1.575319         2.870793
 H         0.853726         2.163543        -0.738233
