19
Iteration:  4959charge 0 multiplicity 1
 C        -0.033460        -0.316565         0.304657
 C         1.236176         0.178065        -0.170007
 C         2.005792         0.118506        -1.435906
 C         3.270631         0.744248        -0.699733
 C         3.724401        -0.497565         0.333822
 C         2.384720        -0.207297         1.097594
 O         1.835919        -0.393921         2.398756
 C         2.273590         1.225643         0.458607
 O         2.256900         2.549842         1.069885
 H        -0.605760        -0.509650        -0.607447
 H        -0.043530        -1.371685         0.672470
 H        -0.548884         0.377585         0.972265
 H         2.280451        -0.903518        -1.708780
 H         1.548194         0.648045        -2.409465
 H         4.035413         1.457539        -0.914072
 H         3.818999        -1.275591        -0.430990
 H         4.615503        -0.083810         0.671202
 H         1.723217        -1.392221         2.453008
 H         1.560758         2.575015         1.738703
