19
Iteration:   511charge 0 multiplicity 1
 C        -0.132942        -0.554081         0.468818
 C         1.360041        -0.215204         0.089016
 C         2.408949        -0.954835        -0.872630
 C         3.399439         0.126906        -0.509755
 C         3.659702        -0.172609         1.082532
 C         2.279230         0.327035         1.228012
 O         1.526650         0.872267         2.314136
 C         2.255249         1.135374        -0.012774
 O         2.169832         2.454562        -0.301061
 H        -0.540514         0.111680         1.194488
 H        -0.754437        -0.650718        -0.410889
 H        -0.105743        -1.493751         1.019849
 H         2.769207        -1.894308        -0.704230
 H         2.087585        -0.827245        -1.936653
 H         4.312699         0.482639        -0.955579
 H         3.841078        -1.183318         1.553379
 H         4.351520         0.592761         1.463899
 H         2.209118         1.243517         2.964825
 H         2.122096         3.053325         0.475240
