19
Iteration:  4340
 C        -0.231729        -0.219217         0.260312
 C         1.276218         0.027012         0.004147
 C         2.132171        -0.287342        -1.222212
 C         3.275352         0.614020        -0.711530
 C         3.764335        -0.352007         0.644459
 C         2.490764        -0.047017         1.171028
 O         2.075222        -0.297092         2.508960
 C         2.289050         1.263691         0.283866
 O         1.920754         2.554736         0.552968
 H        -0.447975        -0.919231         1.115974
 H        -0.864834         0.688446         0.304907
 H        -0.564556        -0.586557        -0.690900
 H         2.232068        -1.373013        -1.481552
 H         1.679584         0.104299        -2.168347
 H         4.001209         1.063844        -1.494693
 H         3.897604        -1.388500         0.265026
 H         4.583067         0.182620         1.163599
 H         1.147340        -0.091207         2.658222
 H         2.657617         3.156403         0.773528
