19
Iteration:  3301charge 0 multiplicity 1
 C        -0.053870        -0.237357         0.491905
 C         1.322114        -0.175759         0.079847
 C         2.239606        -0.728848        -0.943202
 C         3.370426         0.266608        -0.627441
 C         3.784255        -0.095490         0.865676
 C         2.438765         0.246390         1.240673
 O         1.928805         0.371746         2.550855
 C         2.170058         1.110319         0.072382
 O         1.833356         2.435047        -0.229559
 H        -0.671881        -0.751570        -0.206534
 H        -0.238321        -0.410390         1.591959
 H        -0.501823         0.710596         0.485217
 H         2.426088        -1.790764        -0.914690
 H         1.781909        -0.746708        -1.938352
 H         3.930213         0.691513        -1.422431
 H         4.148176        -1.201227         0.807926
 H         4.620513         0.668785         1.251086
 H         1.808871        -0.486401         2.977971
 H         1.449585         2.744295         0.635615
