19
Iteration:  4509
 C        -0.259548        -0.285199         0.077113
 C         1.254598        -0.058177        -0.003199
 C         2.118986        -0.249286        -1.338615
 C         3.249203         0.649390        -0.657783
 C         3.766367        -0.380362         0.525742
 C         2.314082        -0.034689         1.100683
 O         2.070949        -0.133403         2.454994
 C         2.218388         1.226967         0.340522
 O         2.140753         2.577120         0.852400
 H        -0.775109        -0.925383        -0.649228
 H        -0.606436        -0.709903         1.083024
 H        -0.722964         0.724990        -0.104818
 H         2.360432        -1.335311        -1.694719
 H         1.856213         0.310064        -2.229392
 H         3.754297         1.293455        -1.365899
 H         3.983493        -1.401808         0.114504
 H         4.544831         0.050324         1.261181
 H         2.306766        -0.937597         2.919250
 H         2.176281         2.369681         1.810416
