19
Iteration:   279charge 0 multiplicity 1
 C        -0.066988        -0.630224         0.422513
 C         1.380146        -0.142518         0.163536
 C         2.189453        -0.981513        -0.824567
 C         3.376259        -0.013655        -0.463087
 C         3.778204        -0.153417         0.980508
 C         2.318095         0.451814         1.238026
 O         1.539050         1.022043         2.311474
 C         2.248923         1.085563        -0.121346
 O         2.285616         2.489086        -0.098834
 H        -0.823094         0.093514         0.689223
 H        -0.436029        -1.167464        -0.432763
 H        -0.075021        -1.274383         1.309192
 H         2.320308        -2.038266        -0.497647
 H         1.738596        -0.770589        -1.906600
 H         4.227194         0.337614        -1.107150
 H         3.930695        -1.168857         1.209484
 H         4.670510         0.475537         1.177750
 H         1.172200         0.148569         2.683145
 H         1.599004         2.785451        -0.702954
