19
Iteration:  4624charge 0 multiplicity 1
 C        -0.168852         0.050701         0.052324
 C         1.280492         0.019192         0.067984
 C         2.047162        -0.161650        -1.237508
 C         3.270543         0.620169        -0.654871
 C         3.775681        -0.393769         0.530555
 C         2.378181        -0.054745         1.165056
 O         2.235574        -0.490898         2.415262
 C         2.254360         1.210412         0.444840
 O         1.852372         2.479101         0.721039
 H        -0.504951         0.694902         0.887639
 H        -0.366362         0.635287        -0.813391
 H        -0.665698        -0.915247         0.185492
 H         2.127743        -0.985617        -1.881690
 H         1.499276         0.548574        -1.929199
 H         4.001733         1.074118        -1.277808
 H         4.026025        -1.461681         0.370108
 H         4.556436         0.072471         1.097552
 H         1.566465        -1.154202         2.404976
 H         2.510417         3.135859         0.956636
