19
Iteration:  4650
 C        -0.180648         0.211980         0.083282
 C         1.303748         0.127481         0.011437
 C         2.153381        -0.217600        -1.325073
 C         3.231337         0.659287        -0.659855
 C         3.809949        -0.369500         0.391339
 C         2.453064        -0.209129         1.231369
 O         2.186195        -0.525645         2.594905
 C         2.187784         1.131007         0.444947
 O         1.760229         2.473063         0.693804
 H        -0.448493         1.239014         0.342331
 H        -0.504543         0.177559        -0.984025
 H        -0.677191        -0.405351         0.828165
 H         2.374457        -1.173292        -1.804999
 H         1.733876         0.331599        -2.155912
 H         3.991074         1.286640        -1.210223
 H         4.076287        -1.349177         0.016580
 H         4.715414         0.121413         0.885466
 H         1.951644        -1.439412         2.695934
 H         2.342533         2.987897         1.242949
