19
Iteration:  1930
 C        -0.046100        -0.404197         0.381202
 C         1.387317        -0.228460         0.234077
 C         2.296625        -1.059034        -0.770177
 C         3.318281         0.091606        -0.514880
 C         3.802560         0.060049         1.010002
 C         2.428455         0.479936         1.324116
 O         1.935719         0.761030         2.569902
 C         2.081439         1.040156        -0.062589
 O         1.812630         2.312047        -0.553423
 H        -0.505478         0.514954         0.772050
 H        -0.788430        -0.721993        -0.359991
 H        -0.123778        -1.024201         1.327187
 H         2.595992        -2.095935        -0.553410
 H         1.775805        -0.969961        -1.765665
 H         4.113351         0.306112        -1.193079
 H         4.123947        -0.954915         1.460016
 H         4.602026         0.774192         1.176016
 H         2.331341         1.601758         2.875288
 H         0.880897         2.606947        -0.659710
