19
Iteration:   707
 C        -0.041933        -0.578261         0.265884
 C         1.339997        -0.196449         0.139707
 C         2.286989        -0.974224        -0.669965
 C         3.396811         0.006154        -0.529215
 C         3.775765        -0.008834         0.970219
 C         2.319986         0.354599         1.276394
 O         1.680457         0.981074         2.394117
 C         2.228786         1.057166        -0.078888
 O         2.074945         2.426671        -0.227807
 H        -0.472460        -0.228802         1.221693
 H        -0.708786        -0.076819        -0.452891
 H        -0.169656        -1.655109         0.057905
 H         2.617725        -1.965687        -0.188435
 H         1.850434        -1.068611        -1.723287
 H         4.307665         0.150600        -1.195315
 H         4.291538        -0.869055         1.372193
 H         4.334802         0.892054         1.198869
 H         0.775127         0.574454         2.549737
 H         1.616609         2.783639         0.572191
