19
Iteration:  3689
 C        -0.174817        -0.248391         0.166357
 C         1.334090        -0.128740         0.122295
 C         2.204593        -0.689417        -1.053686
 C         3.322173         0.341407        -0.704267
 C         3.832460        -0.158258         0.642822
 C         2.368289         0.109051         1.307666
 O         1.996197         0.300784         2.668756
 C         2.163214         1.117731         0.184910
 O         1.919888         2.532569         0.199264
 H        -0.462267        -0.811921         1.089683
 H        -0.627936         0.703259         0.292568
 H        -0.549704        -0.578422        -0.860560
 H         2.473771        -1.796622        -1.080972
 H         1.844460        -0.322851        -2.048459
 H         4.045160         0.846153        -1.307299
 H         4.409642        -1.146217         0.549091
 H         4.466348         0.475561         1.132472
 H         2.298724        -0.472328         3.152956
 H         1.049482         2.616129        -0.208269
