19
Iteration:   633
 C        -0.054410        -0.249215         0.119689
 C         1.458139        -0.087601         0.223999
 C         2.338433        -0.891242        -0.749699
 C         3.471047         0.130300        -0.364776
 C         3.713435        -0.172742         1.174533
 C         2.377428         0.512746         1.352484
 O         1.782538         0.577593         2.578908
 C         2.249870         1.205979         0.030838
 O         1.658661         2.211130        -0.644985
 H        -0.507068         0.535311         0.765784
 H        -0.445230         0.066923        -0.851468
 H        -0.468482        -1.199404         0.417075
 H         2.501004        -1.883955        -0.454011
 H         2.080251        -0.797736        -1.890886
 H         4.386816         0.186319        -1.093510
 H         3.663209        -1.286670         1.520664
 H         4.653111         0.273621         1.480096
 H         2.331473         0.205300         3.249095
 H         2.285635         2.872141        -0.961962
