19
Iteration:  4237
 C        -0.143410        -0.190063         0.197778
 C         1.304678         0.053117         0.030929
 C         2.047759        -0.358155        -1.218313
 C         3.236638         0.466449        -0.680826
 C         3.824050        -0.193490         0.534756
 C         2.476855         0.032561         1.211027
 O         2.029932        -0.137221         2.579583
 C         2.249810         1.212132         0.310619
 O         1.937291         2.456328         0.481402
 H        -0.536460         0.031253        -0.760554
 H        -0.331427        -1.233168         0.453747
 H        -0.768327         0.499351         0.801234
 H         2.291638        -1.466525        -1.266089
 H         1.697338         0.015079        -2.203250
 H         3.936182         0.885852        -1.362696
 H         4.064582        -1.256563         0.456765
 H         4.601711         0.168514         1.117504
 H         1.404001        -0.917488         2.522167
 H         2.415689         2.856238         1.227422
