19
Iteration:  3040charge 0 multiplicity 1
 C        -0.073238        -0.301825         0.491455
 C         1.361206        -0.135091         0.050267
 C         2.320026        -0.899163        -1.013663
 C         3.356011         0.216721        -0.639942
 C         3.744865        -0.049762         0.914064
 C         2.413989         0.321792         1.270217
 O         1.938019         0.427223         2.542865
 C         2.156351         1.060573         0.047983
 O         1.737026         2.434755        -0.124821
 H         0.092693        -0.690574         1.584956
 H        -0.403175         0.738498         0.744376
 H        -0.707683        -0.909483        -0.104701
 H         2.702178        -1.959647        -0.877894
 H         1.779639        -0.808628        -1.979973
 H         4.074016         0.756223        -1.223821
 H         3.980721        -1.203250         1.161260
 H         4.596754         0.557141         1.358640
 H         1.764516         1.383079         2.712138
 H         2.162868         2.745732        -0.934426
