19
Iteration:  2927charge 0 multiplicity 1
 C        -0.001372        -0.435798         0.502950
 C         1.417099        -0.152508         0.086848
 C         2.269194        -0.846622        -0.904152
 C         3.398543         0.148025        -0.607140
 C         3.832642        -0.134775         0.880341
 C         2.354739         0.333611         1.255009
 O         1.751411         0.584377         2.504975
 C         2.179038         1.173018        -0.026338
 O         1.744721         2.474614        -0.210522
 H        -0.727038        -0.465957        -0.315910
 H        -0.122970        -1.450012         1.044716
 H        -0.353909         0.368820         1.212135
 H         2.517838        -1.941369        -0.758649
 H         2.032652        -0.864514        -1.986138
 H         4.136341         0.429109        -1.393759
 H         3.983326        -1.300456         1.004511
 H         4.491540         0.467785         1.436008
 H         2.434629         0.738412         3.163443
 H         2.456361         3.028771         0.195990
