19
Iteration:  1114
 C         0.037123        -0.124090         0.277651
 C         1.469892        -0.302860         0.093713
 C         2.452985        -1.113613        -0.613702
 C         3.498477         0.158414        -0.485198
 C         3.712317         0.048194         1.041384
 C         2.230129         0.383234         1.272857
 O         1.559035         0.631647         2.470778
 C         2.177943         1.036357        -0.185519
 O         1.823826         2.362701        -0.367007
 H        -0.141752         0.955312         0.519079
 H        -0.393126        -0.357518        -0.743497
 H        -0.489017        -0.662001         1.084675
 H         2.928622        -2.028300        -0.239688
 H         2.123196        -1.283184        -1.618106
 H         4.153342         0.243280        -1.249459
 H         4.347581        -0.856797         1.360874
 H         4.284530         0.882476         1.396335
 H         2.176652         0.277633         3.164862
 H         2.119735         2.857627         0.407964
