19
Iteration:  4735
 C        -0.109269        -0.356545         0.231600
 C         1.295691         0.107084        -0.030692
 C         2.070004        -0.030610        -1.267784
 C         3.304387         0.668315        -0.652964
 C         3.679664        -0.437974         0.413501
 C         2.354637        -0.087636         1.050958
 O         1.897609        -0.302230         2.350521
 C         2.256020         1.284896         0.367748
 O         2.132204         2.527891         0.931657
 H        -0.554347        -0.791670        -0.691174
 H        -0.187812        -1.012199         1.099735
 H        -0.767065         0.493023         0.509793
 H         2.388400        -1.028707        -1.650268
 H         1.868911         0.645257        -2.189771
 H         4.036530         1.244567        -1.225302
 H         3.861844        -1.421346        -0.001269
 H         4.543575        -0.181046         1.108451
 H         1.297439        -1.100401         2.453606
 H         3.024684         2.729077         1.321620
