19
Iteration:   703charge 0 multiplicity 1
 C        -0.077734        -0.526268         0.293721
 C         1.383659        -0.202874         0.135095
 C         2.299896        -0.971454        -0.694452
 C         3.384028         0.040127        -0.512751
 C         3.783187         0.023961         1.001125
 C         2.331422         0.378541         1.274280
 O         1.669114         0.936224         2.388574
 C         2.223309         1.015075        -0.110330
 O         2.083161         2.398767        -0.237893
 H        -0.536300        -0.293366         1.277162
 H        -0.717364        -0.022465        -0.465904
 H        -0.190537        -1.629838         0.135883
 H         2.536554        -1.942884        -0.239251
 H         1.831603        -1.068402        -1.612641
 H         4.160006         0.140812        -1.208297
 H         4.331353        -0.870026         1.375645
 H         4.399878         0.936103         1.279626
 H         0.816414         0.531688         2.447505
 H         1.606415         2.754558         0.521444
