19
Iteration:  4037charge 0 multiplicity 1
 C        -0.141016        -0.284544         0.362586
 C         1.362857         0.023743         0.054994
 C         2.167113        -0.373564        -1.203839
 C         3.338807         0.404296        -0.648889
 C         3.762761        -0.359719         0.637063
 C         2.448636         0.049597         1.167208
 O         1.992073         0.084664         2.495170
 C         2.224209         1.208645         0.171670
 O         1.818489         2.505209         0.404543
 H        -0.601175        -0.574545        -0.598909
 H        -0.277377        -1.158994         1.018867
 H        -0.738565         0.571223         0.717652
 H         2.352956        -1.462228        -1.435308
 H         1.781225         0.147162        -2.108486
 H         4.260104         0.691439        -1.224664
 H         4.040990        -1.427800         0.662719
 H         4.579582         0.271751         1.172275
 H         1.420301        -0.672740         2.663097
 H         2.453790         3.118738         0.834028
