19
Iteration:   662
 C        -0.021092        -0.182329         0.384200
 C         1.435602        -0.176450         0.100647
 C         2.492420        -0.974677        -0.766570
 C         3.440151         0.128964        -0.417414
 C         3.705348        -0.033573         1.080850
 C         2.226236         0.285949         1.297296
 O         1.661556         0.674507         2.576521
 C         2.183533         1.099349        -0.084562
 O         1.873748         2.311207        -0.620916
 H        -0.103831         0.342525         1.343534
 H        -0.680159         0.437617        -0.249932
 H        -0.461794        -1.208419         0.400914
 H         2.734517        -2.037803        -0.344119
 H         2.346094        -0.978334        -1.859262
 H         4.200949         0.215579        -1.192184
 H         4.149877        -0.935726         1.432370
 H         4.364774         0.821352         1.306379
 H         1.508383        -0.140361         3.152314
 H         2.021383         2.915170         0.142007
