19
Iteration:  3063charge 0 multiplicity 1
 C        -0.009707        -0.293012         0.630808
 C         1.415162        -0.103325         0.177621
 C         2.263528        -0.749327        -0.968337
 C         3.424921         0.237249        -0.574122
 C         3.836655        -0.106426         0.822817
 C         2.340246         0.264405         1.274177
 O         1.822578         0.291086         2.539436
 C         2.199964         1.134932         0.051288
 O         1.710573         2.443155        -0.320649
 H        -0.185632        -0.192597         1.803379
 H        -0.523497         0.616923         0.255074
 H        -0.391328        -1.169130         0.174313
 H         2.484177        -1.850296        -0.904160
 H         1.894697        -0.457986        -1.974432
 H         4.045433         0.373021        -1.439080
 H         4.264257        -1.181818         1.141540
 H         4.711725         0.594030         1.224691
 H         1.476638         1.125409         2.903641
 H         2.235756         2.738518        -1.083320
