19
Iteration:  3110
 C        -0.146365        -0.383005         0.360779
 C         1.402732        -0.147198         0.144132
 C         2.252939        -0.756232        -0.909073
 C         3.344937         0.257870        -0.599894
 C         3.690746        -0.123848         0.833333
 C         2.368693         0.300364         1.281095
 O         2.025579         0.357646         2.678715
 C         2.122429         1.186252         0.092286
 O         1.773256         2.464707        -0.318068
 H        -0.599985         0.354945         0.992409
 H        -0.741912        -0.463179        -0.502277
 H        -0.182062        -1.397590         0.863606
 H         2.452468        -1.805669        -0.825665
 H         1.841588        -0.574908        -1.898965
 H         4.181051         0.471624        -1.333537
 H         4.037134        -1.155313         1.072483
 H         4.561625         0.579432         1.362541
 H         2.816272         0.824824         3.056817
 H         2.608168         2.962553        -0.416173
