19
Iteration:  1220charge 0 multiplicity 1
 C        -0.090107        -0.536393         0.297188
 C         1.332097        -0.132271         0.051831
 C         2.362488        -0.964168        -0.774793
 C         3.412048         0.185456        -0.403885
 C         3.749181        -0.059157         1.164244
 C         2.315139         0.364219         1.284672
 O         1.715456         0.727079         2.544856
 C         2.237364         1.124343        -0.003522
 O         1.991169         2.372720        -0.557329
 H        -0.331274        -0.355247         1.360577
 H        -0.868347        -0.127122        -0.327634
 H        -0.076515        -1.595596         0.147090
 H         2.509636        -1.911046        -0.305017
 H         2.336206        -1.146167        -1.814774
 H         4.196647         0.542377        -1.009547
 H         4.077427        -1.043738         1.345255
 H         4.478897         0.700083         1.510500
 H         1.462892         1.669708         2.579236
 H         1.290958         2.856011        -0.114050
