19
Iteration:  4644
 C        -0.202842         0.207513         0.063100
 C         1.317714         0.068128         0.043485
 C         2.105859        -0.177278        -1.303550
 C         3.261365         0.617297        -0.627228
 C         3.753205        -0.315804         0.394446
 C         2.496345        -0.232878         1.242445
 O         2.196522        -0.515034         2.570893
 C         2.241213         1.165269         0.409720
 O         1.753999         2.488624         0.696957
 H        -0.464093         1.222440         0.440066
 H        -0.445215         0.170604        -1.010888
 H        -0.783829        -0.603159         0.583363
 H         2.421338        -1.222589        -1.691722
 H         1.650993         0.387304        -2.165387
 H         3.882434         1.301001        -1.213523
 H         4.043303        -1.373775         0.067859
 H         4.565977         0.071048         0.959107
 H         1.878098        -1.450319         2.548010
 H         2.571314         2.874131         1.134616
