19
Iteration:   563charge 0 multiplicity 1
 C        -0.149702        -0.256404         0.228868
 C         1.410211        -0.259216         0.088659
 C         2.366833        -1.027555        -0.736273
 C         3.478296         0.071718        -0.465022
 C         3.755864        -0.064234         1.099955
 C         2.319860         0.298062         1.222800
 O         1.779641         0.771610         2.525148
 C         2.299288         1.083373        -0.104775
 O         1.835855         2.421237        -0.325071
 H        -0.446262         0.786662         0.405206
 H        -0.571696        -0.437887        -0.776500
 H        -0.652650        -0.886491         1.010467
 H         2.696079        -2.041494        -0.307727
 H         2.086486        -1.091730        -1.796504
 H         4.244733         0.206309        -1.175760
 H         4.000108        -1.040143         1.474781
 H         4.383612         0.726495         1.567253
 H         0.811856         0.581274         2.475133
 H         2.035136         2.933295         0.476060
