19
Iteration:  3730charge 0 multiplicity 1
 C        -0.105986        -0.165440         0.316050
 C         1.400105        -0.127079        -0.002504
 C         2.253254        -0.647050        -1.117899
 C         3.459360         0.242156        -0.668327
 C         3.810252        -0.240587         0.656957
 C         2.376016         0.105217         1.204290
 O         2.003817         0.382480         2.560003
 C         2.186901         1.183125         0.129472
 O         1.697069         2.455236         0.410093
 H        -0.246305         0.299753         1.311050
 H        -0.746002         0.345919        -0.463014
 H        -0.526986        -1.144209         0.236953
 H         2.393381        -1.741123        -1.137046
 H         1.795558        -0.364747        -2.074342
 H         4.156467         0.463583        -1.499343
 H         4.086201        -1.320581         0.729958
 H         4.582780         0.387594         1.175373
 H         1.603250        -0.425835         2.981091
 H         1.334156         2.860199        -0.405483
