19
Iteration:  4292charge 0 multiplicity 1
 C        -0.150568        -0.173502         0.276459
 C         1.277353         0.048671        -0.064031
 C         2.183564        -0.302161        -1.334707
 C         3.323558         0.488952        -0.707813
 C         3.792364        -0.432457         0.542714
 C         2.362256         0.017878         1.078122
 O         2.084272         0.018222         2.529693
 C         2.331634         1.187363         0.257861
 O         1.817907         2.386904         0.693400
 H        -0.341621        -1.232932         0.157657
 H        -0.242467         0.004502         1.354127
 H        -0.904753         0.477920        -0.202399
 H         2.577112        -1.330502        -1.590121
 H         1.526359        -0.024389        -2.175376
 H         4.032759         1.089399        -1.178264
 H         3.990055        -1.515631         0.406458
 H         4.432270         0.047779         1.237244
 H         1.226444         0.400058         2.812536
 H         2.036247         2.538838         1.611246
