19
Iteration:  2734charge 0 multiplicity 1
 C         0.020612        -0.625096         0.461632
 C         1.361042        -0.195935         0.140536
 C         2.186255        -0.926014        -0.862082
 C         3.225581         0.217992        -0.612955
 C         3.758782        -0.130746         0.945804
 C         2.422338         0.421978         1.304145
 O         1.685038         0.704248         2.477966
 C         2.149835         1.123648         0.010394
 O         2.146017         2.532542        -0.330185
 H         0.106306        -1.686466         0.000728
 H        -0.247763        -0.860596         1.539807
 H        -0.887431        -0.237259         0.014163
 H         2.488879        -1.937694        -0.534945
 H         1.813647        -1.042013        -1.904398
 H         3.810295         0.657554        -1.462545
 H         4.152719        -0.995009         1.267644
 H         4.473634         0.799561         1.168896
 H         2.246115         1.005493         3.191761
 H         1.453921         2.857520         0.266740
