19
Iteration:  1676
 C         0.087325        -0.288385         0.522194
 C         1.489817        -0.216208         0.158175
 C         2.288716        -1.109573        -0.703536
 C         3.428252         0.062269        -0.524819
 C         3.804757        -0.033635         0.989441
 C         2.412872         0.424525         1.259891
 O         1.756808         0.856512         2.433537
 C         2.229002         1.075209        -0.192319
 O         1.572355         2.332085        -0.325183
 H        -0.266716         0.779937         0.552900
 H        -0.468497        -0.670477        -0.357886
 H        -0.201279        -1.016305         1.336042
 H         2.814581        -1.961369        -0.273249
 H         1.938005        -1.260021        -1.739262
 H         4.308496         0.013563        -1.206396
 H         4.351206        -0.980351         1.337135
 H         4.436953         0.788244         1.186418
 H         0.958896         0.321410         2.654584
 H         2.161537         2.973362        -0.765041
