19
Iteration:  3350charge 0 multiplicity 1
 C         0.004168        -0.234031         0.317671
 C         1.392745        -0.192262         0.087150
 C         2.225384        -0.798068        -0.995333
 C         3.383952         0.225357        -0.582493
 C         3.810054        -0.224223         0.827801
 C         2.418343         0.264847         1.200169
 O         1.963301         0.625274         2.509235
 C         2.180895         1.146889         0.008934
 O         1.625386         2.335634         0.144524
 H        -0.566483        -0.949327        -0.333359
 H        -0.110859        -0.460024         1.379848
 H        -0.625893         0.744239         0.226981
 H         2.353065        -1.906592        -1.079781
 H         1.971024        -0.520815        -2.021838
 H         4.106168         0.436690        -1.413104
 H         3.969677        -1.332791         0.975251
 H         4.538442         0.434319         1.164186
 H         1.994037        -0.107575         3.167945
 H         2.159615         2.995360        -0.310904
