19
Iteration:  2872charge 0 multiplicity 1
 C        -0.188869        -0.221490         0.462340
 C         1.396665        -0.092119         0.173326
 C         2.386786        -0.844391        -0.945265
 C         3.328082         0.292826        -0.533229
 C         3.772573        -0.074798         0.908974
 C         2.345106         0.303418         1.347140
 O         1.968038         0.263204         2.741685
 C         2.159003         1.181075         0.043858
 O         1.709922         2.321303        -0.601848
 H        -0.391450         0.825429         0.417014
 H        -0.597700        -0.794143        -0.394224
 H        -0.316618        -0.551088         1.515259
 H         2.789720        -1.888731        -0.861585
 H         2.042913        -0.742528        -1.990192
 H         4.177000         0.706553        -1.106345
 H         4.273939        -1.171706         1.185574
 H         4.507682         0.571375         1.320848
 H         2.033743         1.151068         3.143022
 H         2.428687         2.959763        -0.385631
