19
Iteration:  4193charge 0 multiplicity 1
 C        -0.029297        -0.171932         0.404201
 C         1.320081         0.059384        -0.000761
 C         2.249898        -0.318614        -1.288476
 C         3.318585         0.519509        -0.668554
 C         3.631928        -0.356772         0.673766
 C         2.292057         0.087357         1.220563
 O         1.999765        -0.213541         2.544848
 C         2.225261         1.231764         0.286961
 O         1.865311         2.524503         0.301520
 H        -0.601935         0.729509         0.558455
 H        -0.433088        -0.801193        -0.369183
 H        -0.113415        -0.720227         1.377968
 H         2.428282        -1.378280        -1.584406
 H         1.728005         0.148325        -2.151821
 H         3.953403         0.977216        -1.423974
 H         3.866955        -1.413506         0.441823
 H         4.487801         0.027531         1.136695
 H         2.417270        -1.122460         2.633998
 H         2.518483         2.929514         0.892891
