19
Iteration:   697
 C        -0.134678        -0.448778         0.336779
 C         1.424342        -0.200947         0.159374
 C         2.324736        -1.021079        -0.723681
 C         3.377556         0.117626        -0.474304
 C         3.806376         0.069704         1.060979
 C         2.323522         0.403920         1.255313
 O         1.668908         0.870597         2.376712
 C         2.212300         1.003307        -0.134275
 O         2.093781         2.353709        -0.273448
 H        -0.582629        -0.353434         1.342473
 H        -0.683983         0.054532        -0.453370
 H        -0.254175        -1.533712         0.273819
 H         2.449544        -2.096396        -0.380936
 H         1.877629        -1.089369        -1.808322
 H         4.055087         0.239869        -1.396142
 H         4.273688        -0.852217         1.423038
 H         4.447135         0.896313         1.294424
 H         0.809401         0.389539         2.336733
 H         1.604930         2.652229         0.518016
