19
Iteration:  1633
 C        -0.065002        -0.547728         0.489998
 C         1.336647        -0.211441         0.108157
 C         2.348315        -0.986418        -0.818500
 C         3.253637         0.166096        -0.511008
 C         3.785775         0.088293         1.028551
 C         2.329323         0.408209         1.359511
 O         1.843725         0.839403         2.587022
 C         2.102276         1.056118        -0.065780
 O         2.039165         2.374525        -0.553892
 H        -0.764383         0.318688         0.418121
 H        -0.534491        -1.302553        -0.138812
 H        -0.158866        -1.030807         1.481936
 H         2.489336        -1.982250        -0.389193
 H         1.983612        -1.048697        -1.869847
 H         4.043236         0.625574        -1.201518
 H         4.144827        -1.004499         1.410931
 H         4.565545         0.793696         1.204187
 H         1.899390         0.117275         3.226247
 H         1.318224         2.397296        -1.198692
