19
Iteration:  2286charge 0 multiplicity 1
 C        -0.047067        -0.564894         0.400809
 C         1.376409        -0.245570         0.206734
 C         2.287467        -1.077744        -0.725690
 C         3.395840         0.070593        -0.519987
 C         3.758628        -0.002987         0.966047
 C         2.260488         0.372865         1.278749
 O         1.946002         1.042851         2.448631
 C         2.099638         1.016163        -0.056518
 O         1.904082         2.381332        -0.310308
 H        -0.237978        -0.433625         1.447906
 H        -0.508245         0.254230        -0.153427
 H        -0.344569        -1.521179         0.057878
 H         2.763430        -2.012171        -0.400802
 H         1.861701        -1.219559        -1.724024
 H         4.135330         0.088732        -1.328957
 H         4.201813        -1.025778         1.441850
 H         4.330239         0.837798         1.168452
 H         1.449765         1.879884         2.387167
 H         1.373896         2.520400        -1.136471
