19
Iteration:  4104charge 0 multiplicity 1
 C        -0.249996        -0.200307         0.104769
 C         1.326263        -0.067986        -0.002911
 C         2.163870        -0.546364        -1.193426
 C         3.275652         0.411860        -0.606297
 C         3.801324        -0.273004         0.658466
 C         2.389461         0.021031         1.149851
 O         2.239748         0.030944         2.562442
 C         2.171706         1.218274         0.212190
 O         1.828872         2.616642         0.534497
 H        -0.557978        -1.076093         0.670509
 H        -0.594661         0.644608         0.706219
 H        -0.749901        -0.138250        -0.913249
 H         2.279695        -1.676076        -1.244733
 H         1.755635        -0.214473        -2.178019
 H         4.139120         0.763162        -1.309532
 H         4.278882        -1.269639         0.393350
 H         4.621964         0.394265         1.052552
 H         1.273248        -0.188476         2.530492
 H         2.126698         2.599465         1.462566
