19
Iteration:    46charge 0 multiplicity 1
 C        -0.080186        -0.678871         0.279331
 C         1.307394        -0.153734         0.147577
 C         2.287769        -1.007150        -0.735731
 C         3.299542         0.115253        -0.521077
 C         3.609699        -0.010975         1.037745
 C         2.190038         0.350142         1.271208
 O         1.813952         0.902197         2.430276
 C         2.191280         1.092009        -0.085049
 O         2.358885         2.487662        -0.253777
 H        -0.895661        -0.048888         0.673691
 H        -0.446687        -1.173591        -0.626249
 H         0.137417        -1.443287         1.044396
 H         2.532046        -2.035898        -0.537742
 H         1.800640        -0.849841        -1.722607
 H         4.133400         0.265215        -1.129942
 H         3.931159        -0.998612         1.385146
 H         4.209878         0.809575         1.453716
 H         0.865374         0.826106         2.606909
 H         1.517696         2.915442        -0.133153
