19
Iteration:  4944
 C        -0.101930        -0.305700         0.207655
 C         1.318391         0.168173        -0.016620
 C         2.036810         0.080155        -1.416631
 C         3.230048         0.686693        -0.636979
 C         3.688314        -0.412987         0.306397
 C         2.392602        -0.108283         1.056573
 O         1.912665        -0.472108         2.357018
 C         2.237516         1.267776         0.494912
 O         2.274032         2.527679         1.028954
 H        -0.862212        -0.028853        -0.547182
 H        -0.089089        -1.408671         0.322391
 H        -0.483352         0.091662         1.170150
 H         2.172897        -0.944393        -1.894948
 H         1.564897         0.843112        -2.069603
 H         3.916143         1.249262        -1.319999
 H         3.791253        -1.487151         0.053432
 H         4.539344        -0.126017         1.059973
 H         1.692907        -1.393788         2.439323
 H         1.367581         2.760909         1.269246
