19
Iteration:  3497
 C        -0.137171        -0.271656         0.358829
 C         1.353273        -0.127335         0.108283
 C         2.236935        -0.676495        -1.086069
 C         3.391531         0.280335        -0.552798
 C         3.800239        -0.252363         0.842099
 C         2.406461         0.236038         1.279847
 O         1.979161         0.390469         2.543118
 C         2.278536         1.214320         0.136532
 O         1.747953         2.426636        -0.015446
 H        -0.513436        -0.344519         1.392415
 H        -0.638412         0.744738         0.014290
 H        -0.495521        -1.133889        -0.198997
 H         2.302276        -1.804618        -1.139526
 H         1.715172        -0.367617        -2.024700
 H         4.040325         0.648749        -1.339067
 H         3.975785        -1.277167         0.897873
 H         4.639530         0.495717         1.232699
 H         2.406043        -0.278327         3.102084
 H         1.181407         2.379029        -0.835609
