19
Iteration:  4195charge 0 multiplicity 1
 C        -0.039155        -0.186408         0.407558
 C         1.323183         0.044298         0.000216
 C         2.235453        -0.321893        -1.290003
 C         3.319973         0.515665        -0.670189
 C         3.637063        -0.344391         0.681380
 C         2.283213         0.077255         1.222539
 O         2.013746        -0.218031         2.529572
 C         2.231798         1.246294         0.298396
 O         1.872886         2.541327         0.305550
 H        -0.593855         0.778893         0.415153
 H        -0.467182        -0.820741        -0.377181
 H        -0.148698        -0.666503         1.385912
 H         2.479396        -1.355069        -1.565571
 H         1.723275         0.091420        -2.159509
 H         3.932877         0.922602        -1.409446
 H         3.855346        -1.427064         0.353992
 H         4.457661         0.047028         1.185540
 H         2.375059        -1.109356         2.707103
 H         2.498093         2.956285         0.890475
