19
Iteration:   777
 C        -0.089422        -0.474025         0.200993
 C         1.436071        -0.216478         0.126577
 C         2.348795        -0.968782        -0.903090
 C         3.442363         0.095270        -0.452486
 C         3.746464        -0.199869         1.120882
 C         2.280228         0.306715         1.348430
 O         1.753945         1.041267         2.503440
 C         2.250681         1.068542        -0.005466
 O         1.822728         2.343374        -0.379150
 H        -0.565368         0.486225         0.329972
 H        -0.528995        -0.858021        -0.716998
 H        -0.380928        -1.119054         1.001304
 H         2.589192        -2.028320        -0.758837
 H         1.954781        -0.679415        -1.921582
 H         4.250668         0.300704        -1.089518
 H         4.079681        -1.132300         1.595395
 H         4.439870         0.586827         1.357094
 H         2.496187         1.038762         3.150996
 H         1.648704         2.889242         0.396572
