19
Iteration:   165charge 0 multiplicity 1
 C        -0.102952         0.046821         0.085472
 C         1.413995        -0.134417         0.165070
 C         2.399588        -1.059158        -0.688300
 C         3.387349         0.076609        -0.374752
 C         3.710512        -0.045234         1.044116
 C         2.333468         0.406264         1.358484
 O         1.937462         0.589952         2.732535
 C         2.201128         1.093604         0.014882
 O         1.739623         2.204905        -0.667101
 H        -0.582929         0.628004         0.855683
 H        -0.223740         0.564724        -0.843485
 H        -0.542947        -0.908541         0.019700
 H         2.708627        -2.091937        -0.330800
 H         2.179974        -0.995204        -1.737387
 H         4.211556         0.193545        -1.041228
 H         3.974928        -1.070010         1.177271
 H         4.426657         0.676108         1.356200
 H         1.703105        -0.372426         2.991034
 H         1.393771         3.009694        -0.183734
