19
Iteration:  3175
 C        -0.081016        -0.272508         0.444432
 C         1.359028        -0.190599         0.196314
 C         2.277171        -0.905921        -1.017027
 C         3.355331         0.262474        -0.714955
 C         3.879447        -0.180794         0.759923
 C         2.424021         0.167623         1.250018
 O         1.828121         0.630223         2.428771
 C         2.190876         1.092001         0.050673
 O         1.831307         2.450242         0.113023
 H        -0.824567         0.456673         0.181844
 H        -0.432029        -1.136756        -0.029451
 H        -0.317114        -0.517957         1.506893
 H         2.427081        -1.967853        -0.803431
 H         1.771877        -0.721386        -1.969809
 H         3.983689         0.486766        -1.606743
 H         4.318445        -1.150937         1.069079
 H         4.679455         0.472781         1.213222
 H         2.303586         1.417424         2.726525
 H         0.882770         2.673652        -0.012525
