19
Iteration:  3817
 C        -0.076833        -0.389089         0.370016
 C         1.273375         0.044742         0.018512
 C         2.131185        -0.485733        -1.062520
 C         3.258731         0.360390        -0.589814
 C         3.742211        -0.228331         0.776270
 C         2.412408         0.238865         1.253273
 O         1.997290        -0.003594         2.537097
 C         2.071919         1.217388         0.108028
 O         2.129847         2.590233         0.115657
 H        -0.525970        -0.707752        -0.581066
 H        -0.005851        -1.448936         0.783717
 H        -0.691891         0.349965         0.808303
 H         2.300314        -1.541837        -0.964187
 H         1.633038        -0.313144        -2.001076
 H         3.786222         0.856284        -1.366064
 H         4.050895        -1.265110         0.957264
 H         4.543890         0.460571         1.202625
 H         2.069500        -0.965306         2.715227
 H         1.261605         3.060806         0.098878
