19
Iteration:  1706
 C        -0.102053        -0.263863         0.434461
 C         1.422847        -0.259839         0.180847
 C         2.360285        -1.030222        -0.756750
 C         3.458984         0.105218        -0.524600
 C         3.853452        -0.026914         1.035783
 C         2.379808         0.403636         1.298190
 O         1.946350         0.934527         2.511618
 C         2.211367         1.003304        -0.139279
 O         1.579146         2.211791        -0.477081
 H        -0.440224         0.634157         0.972370
 H        -0.604781        -0.230186        -0.571938
 H        -0.606755        -1.093717         0.986684
 H         2.834959        -2.003941        -0.508226
 H         2.021074        -1.088316        -1.784862
 H         4.207747         0.106642        -1.212880
 H         4.217908        -0.938176         1.387006
 H         4.606443         0.765848         1.388956
 H         1.034176         0.655619         2.610047
 H         1.505704         2.647159         0.395937
