19
Iteration:  4897charge 0 multiplicity 1
 C        -0.149410         0.037388         0.164443
 C         1.290583         0.140299        -0.084258
 C         2.083372        -0.031586        -1.352983
 C         3.191708         0.681375        -0.639049
 C         3.737157        -0.342602         0.362800
 C         2.378307        -0.150570         1.136594
 O         2.140427        -0.659367         2.471562
 C         2.280775         1.162081         0.496163
 O         1.968458         2.533409         0.942971
 H        -0.613864         1.025371         0.480632
 H        -0.618184        -0.319441        -0.767975
 H        -0.426752        -0.676318         0.960646
 H         2.206686        -1.135141        -1.673418
 H         1.765934         0.664981        -2.061758
 H         3.997951         1.314001        -1.100368
 H         4.074631        -1.319010        -0.137707
 H         4.647926         0.079338         0.885176
 H         1.605178        -1.487676         2.351891
 H         2.077993         2.854849         0.038858
