19
Iteration:  2388
 C        -0.000522        -0.241126         0.462159
 C         1.467668        -0.190747         0.199381
 C         2.303055        -0.951073        -0.826895
 C         3.417902         0.072349        -0.514138
 C         3.821670        -0.126255         1.072860
 C         2.404013         0.437535         1.292823
 O         1.842363         0.792625         2.566697
 C         2.242025         1.099749        -0.022122
 O         1.688144         2.269612        -0.530825
 H        -0.588712         0.639861         0.595684
 H        -0.450003        -0.801144        -0.323994
 H        -0.163735        -0.994889         1.314731
 H         2.374386        -2.029897        -0.529243
 H         1.851463        -1.041962        -1.798041
 H         4.241513         0.324541        -1.223269
 H         4.095232        -1.234750         1.320944
 H         4.520239         0.814473         1.337141
 H         0.971964         1.196222         2.428408
 H         0.996889         1.902158        -1.094076
