19
Iteration:  3265
 C        -0.154027        -0.482993         0.348605
 C         1.349808        -0.111920         0.190869
 C         2.104452        -0.722737        -0.919896
 C         3.300125         0.278147        -0.637797
 C         3.754209        -0.157895         0.792986
 C         2.403962         0.275107         1.359942
 O         2.102750         0.335543         2.703735
 C         2.142966         1.218364         0.086243
 O         1.991762         2.577392        -0.293157
 H        -0.515494        -0.886440        -0.564057
 H        -0.369667        -1.306283         1.055338
 H        -0.642077         0.464710         0.519330
 H         2.348731        -1.764251        -0.673079
 H         1.815794        -0.472931        -1.948051
 H         3.951694         0.714930        -1.422949
 H         4.126934        -1.182436         0.990254
 H         4.671049         0.545253         1.165008
 H         1.318042        -0.110682         3.021514
 H         1.180066         2.811411        -0.782656
