19
Iteration:  1097
 C        -0.147148        -0.094535         0.281313
 C         1.401024        -0.193834         0.101083
 C         2.481456        -1.030769        -0.742756
 C         3.463517         0.112138        -0.399246
 C         3.793912         0.098497         1.126317
 C         2.333358         0.320718         1.267469
 O         1.612262         0.556746         2.472255
 C         2.267966         1.054014        -0.067819
 O         1.834572         2.271561        -0.515973
 H        -0.451703         0.920724         0.507606
 H        -0.729866        -0.322845        -0.603327
 H        -0.402882        -0.701614         1.173269
 H         2.663755        -2.031004        -0.247286
 H         2.210131        -1.168914        -1.854542
 H         4.320260         0.495788        -1.134464
 H         4.144868        -0.818940         1.592544
 H         4.399347         0.981980         1.496059
 H         2.292566         0.573783         3.209179
 H         1.466462         2.583255         0.316903
