19
Iteration:  3282
 C        -0.127236        -0.333548         0.425312
 C         1.359377        -0.099113         0.138131
 C         2.219602        -0.814910        -0.998848
 C         3.219702         0.261084        -0.563568
 C         3.816729        -0.089271         0.814556
 C         2.345368         0.286306         1.315647
 O         2.073693         0.336556         2.692041
 C         2.176777         1.170477         0.048799
 O         1.965490         2.532465        -0.276059
 H        -0.598249        -0.979653        -0.454951
 H        -0.200338        -0.909513         1.346939
 H        -0.867683         0.555035         0.455486
 H         2.531798        -1.902367        -1.126221
 H         1.679283        -0.523943        -1.924749
 H         4.031881         0.551222        -1.249722
 H         4.025622        -1.179874         0.959541
 H         4.344464         0.674362         1.130486
 H         1.504594        -0.431428         2.672678
 H         1.015206         2.644210        -0.046973
