19
Iteration:  2832
 C        -0.004169        -0.187719         0.204855
 C         1.414718        -0.174961         0.220368
 C         2.249823        -0.833845        -0.816330
 C         3.376488         0.167202        -0.510436
 C         3.826070        -0.102894         0.920971
 C         2.407506         0.330435         1.318017
 O         2.016594         0.439611         2.602820
 C         2.193091         1.137391         0.074784
 O         1.553370         2.276401        -0.363313
 H        -0.437357         0.377418         1.099206
 H        -0.383733         0.448855        -0.652366
 H        -0.626628        -1.050358         0.248229
 H         2.407163        -1.930209        -0.743326
 H         1.824369        -0.730256        -1.833199
 H         4.006153         0.370741        -1.400859
 H         4.153052        -1.087627         1.100060
 H         4.497236         0.628464         1.500849
 H         1.968662         1.370366         2.849776
 H         2.105280         3.070543        -0.371518
