19
Iteration:  4145
 C        -0.039197        -0.164424         0.345856
 C         1.376746        -0.060616         0.102504
 C         2.116048        -0.337647        -1.224717
 C         3.339244         0.458216        -0.624139
 C         3.753956        -0.346194         0.576196
 C         2.434415         0.014538         1.184004
 O         1.940556        -0.027906         2.489192
 C         2.268464         1.233006         0.204671
 O         1.777673         2.484855         0.389649
 H        -0.245955        -0.161156         1.440098
 H        -0.619682         0.585123        -0.229446
 H        -0.340053        -1.133897        -0.069679
 H         2.394210        -1.380589        -1.549365
 H         1.580985         0.132607        -2.074818
 H         4.148267         1.016856        -1.171351
 H         4.111175        -1.334202         0.441473
 H         4.584469         0.223767         1.146147
 H         1.613085        -0.828207         2.913202
 H         2.482503         2.963335         0.905332
