19
Iteration:  3395charge 0 multiplicity 1
 C        -0.090682        -0.486098         0.185450
 C         1.312635        -0.144219         0.151662
 C         2.197791        -0.770750        -0.960479
 C         3.234439         0.300184        -0.593043
 C         3.737966        -0.155065         0.780078
 C         2.390895         0.281023         1.329956
 O         2.173066         0.541587         2.693138
 C         2.096126         1.143288         0.050088
 O         1.909779         2.457676        -0.005726
 H        -0.167831        -1.262723        -0.570365
 H        -0.626297        -0.617345         1.156609
 H        -0.810453         0.337253        -0.254848
 H         2.455013        -1.855034        -1.041494
 H         1.656183        -0.607702        -1.907920
 H         3.962692         0.867780        -1.206778
 H         4.104228        -1.248808         0.758130
 H         4.532030         0.436824         1.229309
 H         1.345919         0.116165         3.015073
 H         1.884813         2.798331        -0.907759
