19
Iteration:  3443
 C        -0.060811        -0.401196         0.558281
 C         1.360331        -0.084262         0.090540
 C         2.244951        -0.718946        -1.000256
 C         3.353111         0.295286        -0.647512
 C         3.800609        -0.133231         0.857241
 C         2.389515         0.256146         1.282753
 O         1.881658         0.279141         2.526458
 C         2.161909         1.194595         0.014684
 O         1.964921         2.562441        -0.114570
 H        -0.003567        -1.492832         0.565068
 H        -0.433079         0.159467         1.485189
 H        -0.889823        -0.222152        -0.132481
 H         2.455260        -1.806098        -0.822444
 H         1.817058        -0.698016        -2.031171
 H         4.021965         0.580223        -1.453415
 H         4.107709        -1.119097         1.080051
 H         4.619753         0.629811         1.275251
 H         0.980740        -0.057408         2.444451
 H         0.996359         2.633572        -0.293467
