19
Iteration:  3472charge 0 multiplicity 1
 C         0.016286        -0.228384         0.534409
 C         1.413439        -0.159935         0.084317
 C         2.298662        -0.714358        -1.073986
 C         3.397701         0.302468        -0.588878
 C         3.772276        -0.203492         0.780659
 C         2.413875         0.196058         1.305095
 O         1.820579         0.352570         2.554626
 C         2.154147         1.185127         0.062333
 O         1.837467         2.524687        -0.096529
 H        -0.005573        -0.918048         1.381922
 H        -0.497624         0.701558         0.921187
 H        -0.589391        -0.874248        -0.190456
 H         2.428658        -1.809340        -1.044838
 H         1.794172        -0.492996        -2.019361
 H         4.098661         0.639082        -1.344113
 H         3.896585        -1.315017         0.732379
 H         4.583377         0.384337         1.196349
 H         1.431438        -0.508595         2.858809
 H         0.941670         2.602751        -0.491273
