19
Iteration:  1769charge 0 multiplicity 1
 C        -0.170008        -0.597223         0.387947
 C         1.303111        -0.148441         0.207059
 C         2.243247        -0.981664        -0.669706
 C         3.365599         0.073151        -0.483115
 C         3.803554         0.067411         0.995697
 C         2.396029         0.490617         1.301977
 O         1.942547         0.807942         2.585784
 C         2.155416         1.131059        -0.044145
 O         1.926168         2.358262        -0.625103
 H        -0.596618        -0.174079         1.254268
 H        -0.761510        -0.247608        -0.464920
 H        -0.140407        -1.645680         0.389936
 H         2.406134        -2.031336        -0.396048
 H         1.862677        -0.933483        -1.699666
 H         4.033726        -0.038463        -1.289205
 H         4.053600        -0.990641         1.317036
 H         4.619415         0.809922         1.305241
 H         2.701137         0.771377         3.173387
 H         0.962041         2.385066        -0.745266
