19
Iteration:  4995
 C        -0.143315        -0.229609         0.240758
 C         1.285158         0.092000        -0.051140
 C         1.979476         0.138750        -1.391252
 C         3.361114         0.615303        -0.667116
 C         3.705599        -0.450761         0.372126
 C         2.349377        -0.090248         0.987754
 O         2.023301        -0.379985         2.294560
 C         2.268853         1.249151         0.397390
 O         2.079186         2.452517         1.155109
 H        -0.526999        -0.922916        -0.553628
 H        -0.347413        -0.595176         1.241079
 H        -0.786341         0.652012         0.065907
 H         2.206025        -0.753655        -1.982677
 H         1.457626         0.836035        -2.024543
 H         3.972950         1.250289        -1.376613
 H         4.147311        -1.382348        -0.000661
 H         4.456456        -0.110365         1.087369
 H         1.615633        -1.264596         2.452135
 H         2.698026         2.188153         1.835813
