19
Iteration:  2669charge 0 multiplicity 1
 C         0.024637        -0.313510         0.496222
 C         1.417835        -0.163047         0.036744
 C         2.323600        -0.908126        -0.916646
 C         3.410507         0.155172        -0.481811
 C         3.721513        -0.109427         0.913473
 C         2.395831         0.384687         1.306304
 O         1.779661         0.577742         2.612559
 C         2.192373         1.073905        -0.012523
 O         1.794124         2.387646        -0.350621
 H        -0.686844         0.084441        -0.259031
 H        -0.278426        -1.303258         0.771553
 H        -0.196633         0.175508         1.406766
 H         2.464440        -1.968739        -0.828788
 H         2.172939        -0.734355        -1.995716
 H         4.223121         0.466607        -1.173999
 H         4.014680        -1.130699         1.324296
 H         4.493662         0.688274         1.375124
 H         1.656654         1.519702         2.872708
 H         1.318637         2.285395        -1.212427
