19
Iteration:  2033charge 0 multiplicity 1
 C        -0.120808        -0.509505         0.260681
 C         1.320949        -0.385506         0.259989
 C         2.313825        -1.100772        -0.582528
 C         3.251370         0.124585        -0.612256
 C         3.778617         0.037975         0.962340
 C         2.397068         0.423448         1.328251
 O         2.030668         0.999588         2.517263
 C         2.072183         1.012629        -0.045687
 O         1.875390         2.400875        -0.364292
 H        -0.682813        -0.113289         1.164432
 H        -0.573882        -0.088541        -0.724534
 H        -0.284737        -1.576613         0.208018
 H         2.777338        -2.089119        -0.357189
 H         1.878864        -1.374668        -1.571721
 H         4.113147         0.360178        -1.387049
 H         4.186704        -0.928677         1.203557
 H         4.388756         0.899147         1.183915
 H         2.442063         1.846034         2.698230
 H         1.299897         2.400559        -1.136615
