19
Iteration:  2626charge 0 multiplicity 1
 C        -0.026320        -0.156936         0.230592
 C         1.476171        -0.209635         0.171994
 C         2.372259        -1.032133        -0.748826
 C         3.358880         0.113518        -0.551388
 C         3.817327        -0.058866         0.907086
 C         2.339013         0.330608         1.275418
 O         1.855691         0.718130         2.502632
 C         2.171519         1.018645        -0.001528
 O         1.638731         2.284369        -0.128105
 H        -0.195914         0.932190         0.266804
 H        -0.415901        -0.598474        -0.645919
 H        -0.402316        -0.550279         1.165430
 H         2.601224        -2.060482        -0.520684
 H         2.048915        -0.969735        -1.815165
 H         4.053932         0.512148        -1.332368
 H         4.363091        -1.045814         1.229840
 H         4.609874         0.767744         1.059933
 H         2.415155         1.487700         2.720085
 H         1.095178         2.382623        -0.938565
