19
Iteration:     6
 C        -0.120289        -0.329545         0.244959
 C         1.423690        -0.162060         0.134848
 C         2.373616        -1.024475        -0.773020
 C         3.434675         0.088339        -0.433753
 C         3.740514        -0.095755         1.101586
 C         2.330348         0.380222         1.345876
 O         1.715739         0.849844         2.462575
 C         2.222563         1.081048        -0.015944
 O         1.915125         2.338144        -0.443883
 H        -0.630220         0.396301         0.923316
 H        -0.658270        -0.274584        -0.721985
 H        -0.248784        -1.322560         0.750181
 H         2.732310        -2.068894        -0.611013
 H         1.906161        -0.867294        -1.776522
 H         4.188421         0.239510        -1.230813
 H         3.982000        -1.187339         1.208679
 H         4.479236         0.682432         1.378913
 H         1.215656         0.116227         2.885844
 H         2.277037         3.002959         0.203620
