19
Iteration:  2765charge 0 multiplicity 1
 C        -0.139310        -0.495360         0.503059
 C         1.330574        -0.277915         0.136126
 C         2.333536        -0.863530        -0.880106
 C         3.461968         0.168690        -0.599180
 C         3.746021        -0.094955         0.973530
 C         2.287975         0.276230         1.172656
 O         1.792700         0.758331         2.441835
 C         2.220018         1.093535        -0.132878
 O         1.897349         2.478143        -0.182527
 H        -0.216828        -1.527585         1.025931
 H        -0.515417         0.252734         1.318342
 H        -0.861304        -0.585209        -0.316079
 H         2.596705        -1.958370        -0.744587
 H         1.979161        -0.717028        -1.922381
 H         4.164586         0.332765        -1.441164
 H         4.217602        -0.984536         1.302540
 H         4.299150         0.807238         1.361367
 H         2.536682         1.095869         3.001535
 H         2.061941         2.793205         0.745264
