19
Iteration:  2443charge 0 multiplicity 1
 C        -0.140342        -0.314228         0.137568
 C         1.390178        -0.230113         0.101394
 C         2.374484        -1.096193        -0.712269
 C         3.334077         0.071189        -0.488441
 C         3.818441         0.053385         0.996349
 C         2.362153         0.377793         1.304028
 O         2.034538         0.841870         2.628369
 C         2.154114         1.020039        -0.043038
 O         1.679929         2.288650        -0.256249
 H        -0.584535         0.007570        -0.788966
 H        -0.643552        -1.235478         0.376377
 H        -0.585855         0.447073         0.839021
 H         2.576133        -2.103997        -0.328241
 H         1.939553        -1.074086        -1.697862
 H         4.130766         0.299372        -1.248440
 H         4.360088        -0.917506         1.214326
 H         4.545199         0.854299         1.310477
 H         2.090387         1.799739         2.590682
 H         1.423021         2.218119        -1.185683
