19
Iteration:  1744charge 0 multiplicity 1
 C        -0.098194        -0.483453         0.261891
 C         1.376868        -0.246312         0.253274
 C         2.283094        -1.027454        -0.782481
 C         3.242092         0.148694        -0.520897
 C         3.805241        -0.018023         0.974353
 C         2.428076         0.508657         1.364700
 O         1.978452         0.977193         2.699784
 C         2.122667         1.059186        -0.010910
 O         1.863110         2.252860        -0.608375
 H        -0.573757         0.178809         1.041134
 H        -0.541208        -0.119458        -0.668612
 H        -0.241951        -1.571254         0.362887
 H         2.646485        -1.918868        -0.282801
 H         1.781509        -1.235520        -1.756824
 H         3.976458         0.356223        -1.427828
 H         4.199912        -1.060782         1.225516
 H         4.496686         0.722882         1.201191
 H         2.145045         0.205383         3.291252
 H         0.932531         2.449658        -0.359943
