19
Iteration:  2574
 C        -0.104353        -0.514074         0.264304
 C         1.382098        -0.135132         0.220921
 C         2.237119        -0.920071        -0.756094
 C         3.322689         0.189027        -0.567651
 C         3.773347        -0.100596         0.942720
 C         2.370858         0.350131         1.324717
 O         1.903559         0.719075         2.574260
 C         2.147738         1.105617        -0.014001
 O         1.907786         2.425951        -0.305347
 H        -0.384386        -0.610419         1.349656
 H        -0.774007         0.227892        -0.256820
 H        -0.167082        -1.480052        -0.346613
 H         2.608038        -1.906667        -0.358314
 H         2.081380        -1.077278        -1.832742
 H         4.192023         0.250989        -1.281467
 H         4.093565        -1.137631         1.199733
 H         4.407145         0.596487         1.313296
 H         2.143646         1.645551         2.677462
 H         1.462684         2.447402        -1.166127
