19
Iteration:  2169charge 0 multiplicity 1
 C        -0.051702        -0.448103         0.470090
 C         1.381564        -0.121970         0.192133
 C         2.261265        -1.043962        -0.639635
 C         3.294787         0.104879        -0.533389
 C         3.705439         0.091886         0.996289
 C         2.287359         0.535423         1.361473
 O         1.953068         0.549979         2.654282
 C         2.184050         1.124740        -0.119135
 O         1.940517         2.388968        -0.718918
 H        -0.658754         0.450488         0.622493
 H        -0.578298        -1.012529        -0.315472
 H        -0.181198        -1.035574         1.470922
 H         2.630730        -2.024560        -0.284914
 H         1.908970        -1.167797        -1.675261
 H         3.874040         0.206583        -1.434656
 H         4.050399        -0.835130         1.292494
 H         4.289150         0.991859         1.462962
 H         2.438687         1.122232         3.256529
 H         1.379068         2.338478        -1.531121
