19
Iteration:   225
 C        -0.159323        -0.271954         0.332617
 C         1.375052        -0.210898         0.066024
 C         2.369419        -0.993153        -0.801893
 C         3.475925         0.079549        -0.486151
 C         3.679584        -0.148048         1.124619
 C         2.299856         0.371862         1.248392
 O         1.887286         0.825057         2.568812
 C         2.278231         1.095723        -0.067492
 O         1.864086         2.368295        -0.327335
 H        -0.384694         0.504755         1.086829
 H        -0.732154         0.054050        -0.549837
 H        -0.608050        -1.266189         0.623883
 H         2.556835        -2.075533        -0.783766
 H         2.042289        -0.901049        -1.919892
 H         4.234276         0.309394        -1.284457
 H         3.861821        -1.185707         1.452620
 H         4.403619         0.458408         1.711084
 H         0.961065         0.462051         2.652699
 H         2.024870         2.446495        -1.269882
