19
Iteration:  4384charge 0 multiplicity 1
 C        -0.175198        -0.160352         0.351812
 C         1.349102         0.045223         0.125354
 C         2.079633        -0.250994        -1.305843
 C         3.365656         0.563845        -0.622347
 C         3.744299        -0.305142         0.591950
 C         2.410825         0.016701         1.239083
 O         2.096629        -0.533887         2.488151
 C         2.240917         1.324453         0.283406
 O         1.897452         2.631751         0.339098
 H        -0.572312         0.413163         1.243816
 H        -0.809694         0.247928        -0.475483
 H        -0.494262        -1.191468         0.348767
 H         2.384835        -1.235747        -1.792644
 H         1.416846         0.224310        -2.087503
 H         4.163336         1.229030        -1.111153
 H         3.855736        -1.402712         0.510005
 H         4.501265         0.128813         1.321383
 H         1.156000        -0.725344         2.395714
 H         2.522180         2.889937         1.037431
