19
Iteration:  4999
 C        -0.168052        -0.215097         0.193357
 C         1.299847         0.107953        -0.073850
 C         1.957692         0.108768        -1.412823
 C         3.329854         0.626128        -0.671969
 C         3.742289        -0.445532         0.345705
 C         2.341324        -0.117352         1.012960
 O         2.054440        -0.394739         2.333113
 C         2.297964         1.264904         0.408500
 O         2.058374         2.449644         1.167788
 H        -0.541402        -0.969912        -0.503713
 H        -0.389065        -0.425720         1.263597
 H        -0.736355         0.715759        -0.008628
 H         2.116865        -0.809713        -2.029636
 H         1.468092         0.817267        -2.070331
 H         3.897565         1.208447        -1.366752
 H         4.204206        -1.421960         0.123177
 H         4.411921        -0.119087         1.247136
 H         1.606557        -1.236836         2.420142
 H         2.754651         2.357170         1.888346
