19
Iteration:  1026
 C        -0.057389        -0.539105         0.305397
 C         1.315319        -0.113062        -0.003100
 C         2.272993        -0.884954        -0.816931
 C         3.424708         0.125089        -0.361473
 C         3.672626        -0.200649         1.213437
 C         2.305624         0.424838         1.359186
 O         1.838099         0.726878         2.580962
 C         2.255397         1.113330        -0.037444
 O         1.956615         2.463485        -0.500992
 H        -0.672934         0.090936         1.013078
 H        -0.661171        -0.487341        -0.651607
 H        -0.008313        -1.587450         0.661343
 H         2.497880        -1.902637        -0.656716
 H         2.193480        -0.757370        -1.873566
 H         4.243751         0.373974        -0.964243
 H         3.901484        -1.353498         1.219434
 H         4.545646         0.311393         1.636867
 H         1.242619         1.517430         2.457602
 H         1.932194         2.620042        -1.454357
