19
Iteration:  2246
 C         0.002435        -0.270070         0.478286
 C         1.468620        -0.245852         0.176988
 C         2.377421        -1.047403        -0.701825
 C         3.495277         0.003504        -0.541537
 C         3.851543        -0.139721         0.983643
 C         2.392676         0.400572         1.268360
 O         1.749133         1.001424         2.357641
 C         2.240186         1.073495        -0.074300
 O         1.573356         2.261269        -0.269724
 H        -0.313079         0.072871         1.467133
 H        -0.635303         0.275456        -0.220845
 H        -0.406065        -1.345572         0.356763
 H         2.553956        -2.126098        -0.533862
 H         2.025591        -0.915940        -1.731154
 H         4.170450         0.015075        -1.368178
 H         3.840358        -1.049919         1.431139
 H         4.769946         0.498625         1.319950
 H         2.190180         1.868502         2.330276
 H         0.901421         2.183225        -0.961862
