19
Iteration:  3298charge 0 multiplicity 1
 C        -0.072723        -0.262462         0.483784
 C         1.328339        -0.164397         0.094957
 C         2.216320        -0.735597        -0.974191
 C         3.368330         0.270945        -0.634831
 C         3.739678        -0.090807         0.871052
 C         2.437362         0.273456         1.242103
 O         1.967306         0.350277         2.581797
 C         2.169964         1.126103         0.065186
 O         1.867353         2.432411        -0.235696
 H        -0.597398        -0.823188        -0.239231
 H        -0.310493        -0.498294         1.558420
 H        -0.554582         0.738713         0.509717
 H         2.429332        -1.839757        -0.851277
 H         1.811517        -0.739447        -2.009116
 H         3.983109         0.725981        -1.421368
 H         4.182278        -1.079276         0.960099
 H         4.633250         0.654339         1.244434
 H         1.702567        -0.483590         3.006662
 H         1.324900         2.781389         0.494382
