19
Iteration:  1922charge 0 multiplicity 1
 C        -0.075331        -0.475673         0.360745
 C         1.409498        -0.235227         0.243207
 C         2.258876        -1.049402        -0.704534
 C         3.302776         0.063936        -0.564158
 C         3.798649         0.044412         1.016853
 C         2.383989         0.486113         1.253302
 O         1.971779         0.794667         2.614678
 C         2.144017         1.086639        -0.089422
 O         1.823751         2.322469        -0.503895
 H        -0.454966         0.553685         0.495234
 H        -0.512772        -0.913412        -0.662013
 H        -0.489491        -1.052262         1.212522
 H         2.493030        -2.116008        -0.505417
 H         1.743865        -0.879835        -1.671046
 H         4.071507         0.411728        -1.197368
 H         4.222695        -0.869128         1.499842
 H         4.501151         0.788562         1.056601
 H         2.390912         1.651378         2.882652
 H         0.840170         2.468981        -0.507329
