19
Iteration:  4510
 C        -0.252092        -0.284241         0.074502
 C         1.248210        -0.051895        -0.003599
 C         2.119278        -0.246600        -1.333860
 C         3.245230         0.653429        -0.661232
 C         3.769187        -0.380173         0.537068
 C         2.316850        -0.031891         1.090014
 O         2.066181        -0.132294         2.452556
 C         2.220176         1.208452         0.342383
 O         2.145161         2.579357         0.850189
 H        -0.773503        -0.963566        -0.596580
 H        -0.543390        -0.714943         1.073884
 H        -0.735737         0.697679        -0.125631
 H         2.303154        -1.313104        -1.656591
 H         1.840128         0.312721        -2.219144
 H         3.756701         1.345391        -1.378534
 H         3.978524        -1.403794         0.106634
 H         4.528718         0.042808         1.247045
 H         2.286872        -0.961185         2.931419
 H         2.185300         2.362018         1.825943
