19
Iteration:  2440
 C        -0.129670        -0.316225         0.156753
 C         1.381845        -0.221239         0.105066
 C         2.365177        -1.097914        -0.717145
 C         3.346152         0.074661        -0.498272
 C         3.823024         0.062118         1.019225
 C         2.390186         0.375438         1.310540
 O         2.039305         0.835169         2.621499
 C         2.142598         1.009076        -0.038856
 O         1.669777         2.291510        -0.270108
 H        -0.493801         0.182823        -0.857812
 H        -0.733043        -1.216654         0.294149
 H        -0.584455         0.408567         0.868721
 H         2.660019        -2.123696        -0.377952
 H         1.892278        -1.171604        -1.733979
 H         4.154270         0.358416        -1.182498
 H         4.269807        -0.962843         1.277888
 H         4.469998         0.771808         1.267010
 H         2.030169         1.816424         2.555526
 H         1.359145         2.244659        -1.197455
