19
Iteration:   965
 C        -0.146749        -0.398271         0.296484
 C         1.320361        -0.221264         0.110739
 C         2.369401        -1.048452        -0.654423
 C         3.390744         0.115599        -0.549594
 C         3.848155         0.016982         1.012079
 C         2.357229         0.298380         1.262595
 O         1.579063         0.911650         2.196270
 C         2.210671         0.972190        -0.032029
 O         2.085119         2.348846         0.002093
 H        -0.476938        -0.176287         1.284234
 H        -0.677541         0.174858        -0.446512
 H        -0.344840        -1.433326        -0.003403
 H         2.686254        -2.014802        -0.092391
 H         2.072874        -1.299699        -1.744800
 H         4.201827         0.374496        -1.337317
 H         4.258316        -0.934982         1.131081
 H         4.561482         0.793696         1.255687
 H         1.897305         1.879935         2.311168
 H         1.194923         2.616260        -0.308447
