19
Iteration:   606
 C        -0.036269        -0.246471        -0.012955
 C         1.434786        -0.151406         0.225206
 C         2.304793        -0.919526        -0.861412
 C         3.476073         0.179710        -0.437084
 C         3.731843        -0.169309         1.127900
 C         2.227847         0.321807         1.451703
 O         1.846181         0.678645         2.783022
 C         2.278741         1.128140         0.031541
 O         1.691638         2.241629        -0.584760
 H        -0.533966         0.688497         0.311278
 H        -0.248281        -0.380658        -1.094632
 H        -0.574216        -0.971847         0.665035
 H         2.394006        -2.113404        -0.711671
 H         1.905440        -0.677119        -1.861581
 H         4.326134         0.412700        -1.010750
 H         4.053562        -1.159831         1.364716
 H         4.499286         0.538809         1.521858
 H         2.399534         1.427774         2.981188
 H         2.347673         2.756535        -1.056474
