19
Iteration:  4052
 C        -0.179652        -0.281022         0.220132
 C         1.307535        -0.082615        -0.020873
 C         2.118047        -0.436044        -1.260630
 C         3.400495         0.374428        -0.698230
 C         3.895921        -0.328055         0.631513
 C         2.361210         0.077046         1.233149
 O         2.064000         0.120055         2.577404
 C         2.212799         1.163603         0.336098
 O         1.817563         2.580718         0.435400
 H        -0.650431        -0.886272        -0.544098
 H        -0.404107        -0.736764         1.188998
 H        -0.590687         0.752358         0.360175
 H         2.298537        -1.478872        -1.475175
 H         1.704972        -0.024925        -2.180403
 H         3.782320         1.052650        -1.504483
 H         4.178084        -1.412226         0.397110
 H         4.696503         0.083420         1.117014
 H         1.183309        -0.298094         2.695903
 H         2.506525         2.850522         1.038344
