19
Iteration:  1605
 C        -0.068173        -0.674864         0.456071
 C         1.361550        -0.207433         0.261830
 C         2.291436        -0.873273        -0.791896
 C         3.322951         0.135150        -0.454162
 C         3.680477         0.019269         1.036136
 C         2.263964         0.470270         1.294351
 O         1.885687         0.832365         2.573550
 C         2.224980         1.124092        -0.081229
 O         1.978746         2.349715        -0.687133
 H        -0.743627         0.179057         0.348356
 H        -0.443080        -1.279924        -0.402621
 H        -0.281801        -1.358750         1.297101
 H         2.387318        -1.943799        -0.536024
 H         1.834408        -0.699168        -1.778657
 H         4.319430         0.267263        -0.986568
 H         3.956155        -0.915443         1.345069
 H         4.540819         0.741811         1.200894
 H         2.253900         0.207419         3.235411
 H         1.620155         2.951467        -0.001913
