19
Iteration:   652charge 0 multiplicity 1
 C        -0.019880        -0.147845         0.328257
 C         1.425526        -0.114530         0.065342
 C         2.400855        -0.996820        -0.729711
 C         3.465981         0.155406        -0.426450
 C         3.708873        -0.066473         1.090833
 C         2.274421         0.371612         1.349092
 O         1.677432         0.630561         2.606794
 C         2.277272         1.074637        -0.073606
 O         1.780021         2.270085        -0.644138
 H        -0.345496         0.244106         1.292625
 H        -0.560336         0.259127        -0.537930
 H        -0.244581        -1.233196         0.396980
 H         2.754430        -2.061101        -0.460055
 H         2.204039        -0.967961        -1.841271
 H         4.338776         0.532925        -0.994601
 H         3.921231        -1.086427         1.394106
 H         4.374493         0.598203         1.642546
 H         1.936559        -0.105250         3.205980
 H         2.092579         3.067244        -0.189216
