19
Iteration:  4900
 C        -0.156637         0.014384         0.163448
 C         1.276841         0.167908        -0.077120
 C         2.080059        -0.025913        -1.344269
 C         3.201217         0.658395        -0.664015
 C         3.739196        -0.354906         0.364321
 C         2.369030        -0.176463         1.147771
 O         2.135034        -0.662585         2.481125
 C         2.262429         1.168987         0.496134
 O         1.997666         2.559435         0.944743
 H        -0.679257         0.977051         0.393351
 H        -0.515041        -0.470046        -0.758921
 H        -0.415812        -0.685228         0.984890
 H         2.267620        -1.096304        -1.812017
 H         1.737756         0.716891        -2.132918
 H         3.946042         1.366062        -1.160703
 H         4.184984        -1.237587        -0.145296
 H         4.678909         0.026427         0.972033
 H         1.627669        -1.452128         2.350178
 H         1.987488         3.018031         0.074959
