19
Iteration:  2774
 C        -0.142464        -0.413148         0.477959
 C         1.384322        -0.234602         0.169393
 C         2.359639        -0.950486        -0.951407
 C         3.406052         0.172672        -0.542656
 C         3.753290        -0.127533         0.994324
 C         2.296465         0.279673         1.217001
 O         1.850054         0.742432         2.365691
 C         2.173649         1.098328        -0.142521
 O         1.806423         2.435343        -0.128784
 H        -0.046573        -1.156772         1.226528
 H        -0.524035         0.558609         0.925345
 H        -0.611873        -0.661799        -0.462256
 H         2.781628        -1.947193        -0.701313
 H         1.842744        -0.818275        -1.901712
 H         4.210738         0.506348        -1.195063
 H         4.355330        -1.124906         1.246409
 H         4.299393         0.693240         1.381927
 H         2.500191         1.173046         2.961776
 H         2.104754         3.001564         0.622166
