19
Iteration:  3404charge 0 multiplicity 1
 C        -0.120158        -0.498870         0.222941
 C         1.341687        -0.091085         0.207484
 C         2.190930        -0.808502        -1.020395
 C         3.207386         0.311114        -0.662686
 C         3.755044        -0.115849         0.859888
 C         2.385034         0.281468         1.295418
 O         2.139774         0.460686         2.660752
 C         2.100954         1.164778         0.110942
 O         1.982850         2.511606        -0.050314
 H        -0.271302        -1.471075        -0.369397
 H        -0.555167        -0.771421         1.155168
 H        -0.657072         0.297968        -0.359161
 H         2.632139        -1.808270        -0.930008
 H         1.575080        -0.689341        -1.901778
 H         3.984613         0.815796        -1.312511
 H         3.892833        -1.271423         1.056474
 H         4.460812         0.560306         1.135443
 H         1.325024         0.118253         3.069319
 H         1.535874         2.722052        -0.884419
