19
Iteration:  1144charge 0 multiplicity 1
 C        -0.131969        -0.408447         0.197394
 C         1.386847        -0.192323         0.036987
 C         2.376709        -1.062550        -0.712315
 C         3.490482         0.133715        -0.434994
 C         3.812760        -0.053546         1.114501
 C         2.350305         0.404963         1.291512
 O         1.666324         0.880489         2.415553
 C         2.248505         1.061241        -0.034406
 O         1.804604         2.357458        -0.282067
 H        -0.682867         0.444176         0.602386
 H        -0.527386        -0.505707        -0.808859
 H        -0.330727        -1.311828         0.727728
 H         2.770128        -2.110016        -0.327385
 H         2.087981        -1.118519        -1.749731
 H         4.140130         0.299582        -1.278536
 H         4.240828        -0.964568         1.401515
 H         4.460500         0.763746         1.444373
 H         1.506065         0.135154         3.042251
 H         2.586109         2.943804        -0.127485
