19
Iteration:  3883
 C        -0.138743        -0.198594         0.339185
 C         1.377700        -0.109967         0.033637
 C         2.158721        -0.515879        -1.311884
 C         3.360430         0.316559        -0.685293
 C         3.804600        -0.316233         0.689166
 C         2.430594         0.131741         1.232280
 O         2.023924         0.266797         2.543726
 C         2.224154         1.180702         0.166562
 O         1.759269         2.434969         0.382751
 H        -0.345631        -1.151160         0.884996
 H        -0.568628         0.610945         0.961509
 H        -0.650009        -0.174977        -0.601487
 H         2.443181        -1.526325        -1.585143
 H         1.909305         0.061393        -2.191127
 H         4.133681         0.756009        -1.263549
 H         3.986901        -1.341325         0.921345
 H         4.614235         0.312472         1.160540
 H         1.346568        -0.425005         2.724791
 H         2.192140         2.752280         1.183766
