19
Iteration:  4344
 C        -0.223414        -0.219738         0.273060
 C         1.265887         0.090438        -0.007569
 C         2.139606        -0.304603        -1.227728
 C         3.293086         0.611743        -0.700050
 C         3.765445        -0.343279         0.604790
 C         2.443277        -0.049665         1.174380
 O         2.093630        -0.331334         2.531818
 C         2.262055         1.235405         0.310695
 O         1.930101         2.572631         0.519330
 H        -0.415744        -0.846899         1.133042
 H        -0.828686         0.692692         0.229404
 H        -0.549671        -0.729388        -0.686224
 H         2.270651        -1.361707        -1.373959
 H         1.620166         0.070465        -2.092358
 H         4.048000         1.084364        -1.298345
 H         3.977273        -1.315100         0.187888
 H         4.549103         0.227000         1.204994
 H         1.123507        -0.141398         2.611383
 H         2.684344         3.164400         0.730731
