19
Iteration:  1394charge 0 multiplicity 1
 C         0.051208        -0.401761         0.472450
 C         1.390894        -0.141058         0.013886
 C         2.412710        -1.104307        -0.705214
 C         3.462720         0.076708        -0.510157
 C         3.707460         0.012180         1.014140
 C         2.301270         0.437970         1.275524
 O         1.629941         0.618544         2.451969
 C         2.217036         1.092517        -0.059942
 O         1.784362         2.441560        -0.387277
 H        -0.403012         0.604191         0.749024
 H        -0.590332        -0.828157        -0.314165
 H         0.105479        -1.084137         1.354331
 H         2.657945        -2.005357        -0.130266
 H         2.189264        -1.347014        -1.765223
 H         4.204627         0.319586        -1.279691
 H         4.297679        -0.868197         1.385764
 H         4.391850         0.930874         1.264316
 H         1.608520         1.562772         2.621092
 H         2.572477         3.051336        -0.367475
