19
Iteration:   906charge 0 multiplicity 1
 C        -0.083597        -0.417210         0.214942
 C         1.401426        -0.154833         0.134379
 C         2.393092        -0.865474        -0.764317
 C         3.456533         0.116889        -0.430206
 C         3.666702        -0.197579         1.089001
 C         2.286758         0.383673         1.357587
 O         1.745564         0.809685         2.568343
 C         2.283118         1.103839         0.012862
 O         1.779274         2.321219        -0.513593
 H        -0.581389         0.000108         1.136396
 H        -0.641130        -0.104786        -0.704362
 H        -0.196894        -1.501872         0.380976
 H         2.610104        -1.946582        -0.594110
 H         2.023016        -0.745128        -1.841690
 H         4.335771         0.421040        -0.957922
 H         3.856649        -1.300568         1.119812
 H         4.512613         0.362935         1.449833
 H         2.474528         1.165348         3.061741
 H         2.546182         2.896665        -0.728386
