19
Iteration:  2455
 C        -0.152852        -0.338498         0.131094
 C         1.340067        -0.277423         0.175056
 C         2.316256        -1.023067        -0.676421
 C         3.430245         0.105362        -0.519032
 C         3.814378        -0.017559         0.894874
 C         2.296723         0.394072         1.337834
 O         1.973411         0.840374         2.588994
 C         2.193657         1.013027        -0.026394
 O         1.738943         2.307094        -0.243815
 H        -0.564107        -0.558230        -0.788206
 H        -0.163593        -1.201897         0.788513
 H        -0.526550         0.508891         0.748516
 H         2.596854        -2.038986        -0.355516
 H         2.224515        -1.140407        -1.738081
 H         4.043744         0.225046        -1.442478
 H         4.303394        -0.886921         1.370473
 H         4.270297         1.062486         1.121744
 H         2.294894         1.774579         2.692454
 H         1.456273         2.590856        -1.143311
