19
Iteration:  3150
 C        -0.039866        -0.381851         0.295037
 C         1.312726        -0.221116         0.132918
 C         2.198672        -0.847688        -0.912266
 C         3.324974         0.234774        -0.638436
 C         3.777212        -0.143476         0.758256
 C         2.445075         0.344601         1.293504
 O         1.947674         0.586486         2.530976
 C         2.177310         1.130166         0.023165
 O         1.844155         2.423524        -0.019780
 H        -0.705605         0.605877         0.349629
 H        -0.600594        -0.969149        -0.487607
 H        -0.360686        -0.747966         1.278166
 H         2.552378        -1.910976        -0.657604
 H         1.684036        -0.668143        -1.878270
 H         4.082953         0.326972        -1.405128
 H         4.182039        -1.162791         1.009240
 H         4.556882         0.477510         0.966797
 H         2.639539         0.772521         3.171287
 H         1.148129         2.701316         0.619728
