19
Iteration:  4383charge 0 multiplicity 1
 C        -0.168160        -0.163824         0.350204
 C         1.348955         0.048663         0.114681
 C         2.082346        -0.256511        -1.305648
 C         3.350319         0.566317        -0.627010
 C         3.740607        -0.301190         0.603873
 C         2.408106         0.013214         1.237790
 O         2.103633        -0.533607         2.491112
 C         2.235630         1.317146         0.287943
 O         1.902738         2.638510         0.340237
 H        -0.579930         0.385970         1.252857
 H        -0.799991         0.292158        -0.460710
 H        -0.494890        -1.188395         0.316895
 H         2.398200        -1.252726        -1.789627
 H         1.395135         0.232902        -2.080675
 H         4.161284         1.236468        -1.102365
 H         3.863147        -1.406111         0.519143
 H         4.490814         0.086597         1.318421
 H         1.172603        -0.697568         2.354954
 H         2.530211         2.895087         1.015234
