19
Iteration:  4758charge 0 multiplicity 1
 C        -0.171029        -0.431883         0.076570
 C         1.222742         0.126742        -0.030816
 C         1.982059        -0.020988        -1.399681
 C         3.225070         0.582375        -0.640214
 C         3.680476        -0.387565         0.494527
 C         2.339907        -0.051435         1.098381
 O         2.004293        -0.383641         2.429632
 C         2.271323         1.284768         0.462393
 O         2.273945         2.671961         0.911430
 H        -0.083942        -1.350171        -0.555008
 H        -0.399163        -0.689495         1.123544
 H        -1.065395         0.090657        -0.298158
 H         2.253397        -1.038045        -1.780949
 H         1.461945         0.735067        -2.232517
 H         4.027476         1.139820        -1.212655
 H         4.009912        -1.366675         0.213487
 H         4.500595         0.089872         1.154888
 H         1.447249        -1.150814         2.431751
 H         2.998571         2.664131         1.566541
