19
Iteration:  3915charge 0 multiplicity 1
 C        -0.115643        -0.116741         0.190449
 C         1.381300         0.022875         0.061433
 C         2.166551        -0.636662        -1.156713
 C         3.326462         0.399666        -0.650526
 C         3.777791        -0.328318         0.629568
 C         2.424330         0.086588         1.154265
 O         2.111357         0.204203         2.503720
 C         2.237807         1.175448         0.218740
 O         1.680785         2.420500         0.468832
 H        -0.402140        -0.325738         1.276010
 H        -0.718530         0.806144        -0.053086
 H        -0.387498        -1.023366        -0.317053
 H         2.497292        -1.694613        -1.100008
 H         1.942633        -0.416394        -2.224814
 H         4.017308         0.839553        -1.309441
 H         3.913863        -1.404130         0.642178
 H         4.725447         0.129939         1.223977
 H         1.212635        -0.186631         2.612078
 H         2.343368         3.008064         0.910307
