19
Iteration:  1148charge 0 multiplicity 1
 C        -0.134355        -0.451133         0.187989
 C         1.378492        -0.161396         0.044654
 C         2.356501        -1.000028        -0.730983
 C         3.499763         0.123517        -0.384236
 C         3.839187        -0.054683         1.104708
 C         2.344661         0.401445         1.269525
 O         1.691735         0.911683         2.436647
 C         2.251307         1.033690        -0.037272
 O         1.802564         2.334277        -0.294226
 H        -0.685362         0.406204         0.623563
 H        -0.606633        -0.522645        -0.838908
 H        -0.322346        -1.431716         0.700528
 H         2.662678        -1.973677        -0.388810
 H         2.070757        -1.102993        -1.803121
 H         4.136649         0.300028        -1.231251
 H         4.216459        -1.104454         1.375278
 H         4.402587         0.766056         1.539573
 H         1.369441         0.174535         2.969217
 H         2.612704         2.837671        -0.110472
