19
Iteration:  2202
 C        -0.137358        -0.275323         0.433174
 C         1.339483        -0.220303         0.248745
 C         2.380989        -1.035639        -0.662496
 C         3.363494         0.114548        -0.511823
 C         3.823384         0.032073         0.957697
 C         2.384917         0.458099         1.351153
 O         1.879958         0.686196         2.585730
 C         2.161832         1.026303        -0.117891
 O         1.813294         2.291321        -0.598829
 H        -0.406723         0.598479         1.038125
 H        -0.731004        -0.244529        -0.494943
 H        -0.470886        -1.217943         1.040864
 H         2.742719        -2.046356        -0.387809
 H         2.047035        -1.054085        -1.712030
 H         3.971098         0.395077        -1.341201
 H         4.300896        -0.872257         1.061392
 H         4.523905         0.882415         1.495472
 H         2.168753         1.512890         3.000594
 H         1.160499         2.173735        -1.305847
