19
Iteration:  4729charge 0 multiplicity 1
 C        -0.078940        -0.261818         0.252580
 C         1.264865         0.105610        -0.064270
 C         2.099609        -0.013783        -1.350237
 C         3.283619         0.637306        -0.617314
 C         3.745467        -0.444634         0.412013
 C         2.379103        -0.043508         1.060000
 O         1.878692        -0.290695         2.386281
 C         2.265291         1.209846         0.389798
 O         2.078587         2.492757         0.923831
 H        -0.595609        -0.618976        -0.629002
 H         0.003444        -1.082695         1.027288
 H        -0.796791         0.455949         0.660290
 H         2.538206        -1.016611        -1.488643
 H         1.700226         0.578662        -2.119375
 H         3.917413         1.190070        -1.369404
 H         3.805633        -1.440288        -0.107856
 H         4.548161        -0.164947         1.061250
 H         1.341402        -1.093663         2.268995
 H         2.915932         2.649290         1.343538
