19
Iteration:  1385charge 0 multiplicity 1
 C         0.009848        -0.412140         0.410249
 C         1.411130        -0.219903        -0.042067
 C         2.376478        -1.123759        -0.718252
 C         3.457276         0.052308        -0.509830
 C         3.742396         0.091176         1.058653
 C         2.315501         0.458664         1.248712
 O         1.703214         0.643185         2.502968
 C         2.173959         1.100779        -0.097650
 O         1.796911         2.461302        -0.298250
 H        -0.496156         0.553599         0.755975
 H        -0.617630        -0.914669        -0.377375
 H        -0.079492        -0.947785         1.391552
 H         2.790183        -1.999111        -0.213684
 H         2.088707        -1.306392        -1.781469
 H         4.373691         0.224724        -1.182514
 H         3.902208        -0.977440         1.396850
 H         4.484141         0.955810         1.439692
 H         1.388779         1.549055         2.554103
 H         2.513523         2.792983        -0.890333
