19
Iteration:   397
 C         0.006743         0.098422         0.209950
 C         1.421543        -0.228624         0.130875
 C         2.397447        -1.056272        -0.856091
 C         3.447447         0.113850        -0.437959
 C         3.796252        -0.085570         1.216849
 C         2.378347         0.388561         1.347258
 O         1.751815         0.685218         2.614533
 C         2.271642         0.943400        -0.106484
 O         1.643338         2.187659        -0.439403
 H        -0.337468         1.022987         0.702399
 H        -0.283930         0.190897        -0.839290
 H        -0.561653        -0.723442         0.682013
 H         2.594718        -2.001340        -0.483174
 H         2.104308        -1.014235        -1.856280
 H         4.280821         0.487829        -1.153137
 H         4.179508        -1.081709         1.537219
 H         4.306738         0.820324         1.747600
 H         0.749128         0.505099         2.465146
 H         2.207615         2.700100        -1.082043
