19
Iteration:  4608
 C        -0.169787        -0.038943         0.191228
 C         1.373378         0.113152        -0.017996
 C         2.074988        -0.082875        -1.350332
 C         3.280407         0.514486        -0.638940
 C         3.729724        -0.383415         0.498673
 C         2.431021        -0.097646         1.130873
 O         2.143737        -0.472547         2.499005
 C         2.231326         1.229985         0.377180
 O         1.869820         2.544262         0.737187
 H        -0.634318         0.005704         1.201550
 H        -0.828980         0.652836        -0.430078
 H        -0.396751        -1.082342        -0.167044
 H         2.178569        -1.215693        -1.662960
 H         1.719841         0.566481        -2.178081
 H         4.057677         1.121613        -1.208149
 H         3.975174        -1.432080         0.149040
 H         4.551126         0.078487         1.103094
 H         1.271219        -0.888962         2.577254
 H         2.685951         2.936604         1.147497
