19
Iteration:  4311
 C        -0.024798        -0.179325         0.267528
 C         1.394794         0.016446        -0.053563
 C         2.093495        -0.309185        -1.331555
 C         3.334005         0.447180        -0.707411
 C         3.688084        -0.353662         0.533415
 C         2.437447        -0.072571         1.179375
 O         2.045614        -0.046065         2.534780
 C         2.177411         1.201312         0.292247
 O         1.838761         2.481536         0.681475
 H        -0.344601        -1.193667         0.520040
 H        -0.426489         0.496071         1.061168
 H        -0.589962         0.020369        -0.708261
 H         2.049841        -1.342557        -1.684886
 H         1.725329         0.338872        -2.167487
 H         4.130786         0.845508        -1.361536
 H         4.086600        -1.341671         0.297731
 H         4.672745         0.104113         0.975670
 H         1.188529         0.385573         2.581973
 H         2.357246         2.668250         1.461081
