19
Iteration:   146
 C        -0.077279        -0.010597         0.173293
 C         1.400743        -0.248614         0.091046
 C         2.358864        -0.984566        -0.777242
 C         3.476583         0.152344        -0.416791
 C         3.721999        -0.113410         1.181909
 C         2.290660         0.325100         1.325458
 O         1.883664         0.676076         2.678148
 C         2.220466         1.047553        -0.064470
 O         1.691227         2.259597        -0.629022
 H        -0.148831         0.592644         1.097848
 H        -0.477417         0.637932        -0.610978
 H        -0.647223        -0.910177         0.392387
 H         2.703568        -1.956387        -0.378358
 H         1.940831        -1.069433        -1.863558
 H         4.343422         0.383910        -1.128944
 H         3.919623        -1.055264         1.661928
 H         4.373180         0.716998         1.559192
 H         1.819852        -0.176788         3.229288
 H         2.460859         2.817299        -0.343183
