19
Iteration:  3583charge 0 multiplicity 1
 C        -0.137204        -0.359370         0.382053
 C         1.388492        -0.138970         0.005869
 C         2.241609        -0.747155        -1.064501
 C         3.389261         0.270670        -0.707593
 C         3.751022        -0.137026         0.739080
 C         2.353009         0.198050         1.234368
 O         1.940705         0.424939         2.545991
 C         2.198412         1.170063         0.135571
 O         1.910172         2.509182         0.243009
 H        -0.676796         0.423932        -0.064608
 H        -0.463428        -1.369548         0.082870
 H        -0.493498        -0.163979         1.395108
 H         2.566093        -1.775892        -1.088515
 H         1.646005        -0.493586        -1.935860
 H         4.109160         0.433946        -1.480167
 H         4.251284        -1.101354         0.919552
 H         4.375280         0.741570         1.132262
 H         1.688616        -0.456642         2.843548
 H         1.376141         2.712896        -0.538742
