19
Iteration:  4239charge 0 multiplicity 1
 C        -0.139040        -0.192056         0.191484
 C         1.302098         0.047759         0.041412
 C         2.049381        -0.370745        -1.236602
 C         3.245040         0.486737        -0.683898
 C         3.789854        -0.187412         0.531566
 C         2.485084         0.023918         1.202573
 O         2.032175        -0.127779         2.586495
 C         2.272504         1.200963         0.310401
 O         1.933745         2.455497         0.499552
 H        -0.544801        -0.032090        -0.811547
 H        -0.344265        -1.221255         0.535104
 H        -0.708787         0.534729         0.752612
 H         2.201614        -1.476442        -1.267703
 H         1.692938        -0.023235        -2.211362
 H         3.976691         0.884732        -1.321465
 H         4.034669        -1.284344         0.507713
 H         4.589956         0.246161         1.048016
 H         1.377484        -0.850402         2.476429
 H         2.418338         2.827532         1.226586
