19
Iteration:  1328
 C        -0.032081        -0.486233         0.121529
 C         1.433116        -0.220709         0.169358
 C         2.326800        -0.902323        -0.823915
 C         3.368077         0.114365        -0.409959
 C         3.774140        -0.150905         1.056861
 C         2.395535         0.473704         1.394566
 O         1.870065         0.948334         2.643543
 C         2.174001         1.055691         0.036389
 O         1.764288         2.250108        -0.525599
 H        -0.677065         0.439281         0.160923
 H        -0.213596        -0.846198        -0.912226
 H        -0.373105        -1.300664         0.785583
 H         2.739086        -1.859810        -0.839747
 H         1.906594        -0.619697        -1.819703
 H         4.131946         0.552646        -0.954114
 H         3.981575        -1.216731         1.349472
 H         4.672787         0.455372         1.445515
 H         0.884959         0.746535         2.676590
 H         1.724201         2.845762         0.254083
