19
Iteration:  1259
 C        -0.096331        -0.262098         0.414138
 C         1.472214        -0.330465         0.183747
 C         2.469923        -1.066712        -0.752337
 C         3.440476         0.174744        -0.480877
 C         3.798975         0.136526         1.039226
 C         2.300010         0.509407         1.331251
 O         1.489281         0.582350         2.431615
 C         2.189296         1.028207        -0.130022
 O         1.979701         2.355571        -0.388887
 H        -0.458358         0.287017         1.295222
 H        -0.579925         0.317303        -0.412656
 H        -0.556035        -1.311441         0.447662
 H         2.855628        -2.079890        -0.311065
 H         1.987373        -0.979615        -1.814143
 H         4.229053         0.330008        -1.307713
 H         4.185362        -0.813950         1.558695
 H         4.579011         0.918961         1.181428
 H         2.166188         0.634219         3.158956
 H         1.385717         2.382643        -1.174557
