19
Iteration:  4421
 C        -0.033160        -0.009754         0.377165
 C         1.442942         0.038929         0.021684
 C         2.056744        -0.262264        -1.411267
 C         3.346415         0.604127        -0.599886
 C         3.756656        -0.416228         0.550746
 C         2.443104        -0.052321         1.182117
 O         2.009137        -0.344282         2.425654
 C         2.256308         1.188508         0.368108
 O         1.737906         2.519685         0.507283
 H        -0.524559         0.943036         0.470956
 H        -0.469969        -0.608505        -0.409004
 H        -0.088185        -0.409255         1.395432
 H         2.275420        -1.287803        -1.508383
 H         1.625775         0.218126        -2.241245
 H         4.055870         1.242855        -1.036130
 H         4.042784        -1.463739         0.369026
 H         4.634453         0.031762         1.110040
 H         1.152693        -0.761675         2.621350
 H         2.316965         3.143199         1.022997
