19
Iteration:  1492charge 0 multiplicity 1
 C        -0.063676        -0.453399         0.188698
 C         1.412367        -0.227495         0.242393
 C         2.403662        -1.035795        -0.628617
 C         3.396255         0.124908        -0.499360
 C         3.771059        -0.045705         1.030209
 C         2.394748         0.473613         1.313335
 O         1.907176         0.895114         2.592255
 C         2.098932         1.077166        -0.057848
 O         1.691231         2.334279        -0.552490
 H        -0.666398        -0.067517         1.032127
 H        -0.480451         0.046086        -0.665131
 H        -0.201256        -1.494576        -0.000918
 H         2.635880        -2.070993        -0.345256
 H         1.979070        -1.118911        -1.656103
 H         4.159643         0.395830        -1.297323
 H         3.962956        -1.012064         1.384591
 H         4.484683         0.577402         1.459985
 H         1.578756         0.096518         3.005899
 H         2.207768         2.999449        -0.054584
