19
Iteration:  3911
 C        -0.081561        -0.120117         0.200185
 C         1.406900        -0.037508         0.045974
 C         2.143962        -0.609308        -1.142351
 C         3.366861         0.368860        -0.664817
 C         3.789940        -0.317341         0.595923
 C         2.357288         0.052690         1.184071
 O         2.099225         0.222829         2.503191
 C         2.219284         1.211304         0.200656
 O         1.673163         2.440797         0.485168
 H        -0.254827        -0.378912         1.263144
 H        -0.673986         0.805181         0.099490
 H        -0.448071        -0.946587        -0.455452
 H         2.480873        -1.671600        -1.090331
 H         1.976124        -0.328508        -2.191063
 H         4.150671         0.725103        -1.393974
 H         3.975583        -1.428990         0.648380
 H         4.630424         0.081972         1.222203
 H         1.231934        -0.117111         2.763088
 H         2.340685         3.021186         0.872356
