19
Iteration:  3492
 C        -0.152028        -0.274712         0.423978
 C         1.368200        -0.115781         0.116594
 C         2.251358        -0.666247        -1.067266
 C         3.383827         0.280395        -0.604022
 C         3.852222        -0.280109         0.846840
 C         2.389136         0.233221         1.279903
 O         1.933081         0.387925         2.553317
 C         2.269543         1.219561         0.082382
 O         1.750980         2.461387        -0.029693
 H        -0.489806        -0.488898         1.450697
 H        -0.491999         0.680393         0.098035
 H        -0.652217        -1.046271        -0.237769
 H         2.512732        -1.723877        -1.210904
 H         1.814097        -0.331045        -2.013093
 H         4.132832         0.671787        -1.320153
 H         4.088165        -1.409897         0.992442
 H         4.542588         0.373157         1.256098
 H         2.294924        -0.400059         3.021634
 H         1.158511         2.303240        -0.772208
