19
Iteration:  1350charge 0 multiplicity 1
 C        -0.116728        -0.484964         0.212252
 C         1.418483        -0.253758         0.197577
 C         2.375000        -0.940681        -0.769197
 C         3.409108         0.206262        -0.485641
 C         3.733701        -0.031483         1.016337
 C         2.271623         0.274056         1.333680
 O         1.856977         0.893121         2.547469
 C         2.255251         1.075198         0.028496
 O         1.920887         2.343525        -0.414900
 H        -0.736886         0.466549         0.185653
 H        -0.402034        -1.003793        -0.721018
 H        -0.380192        -1.169543         1.045636
 H         2.671949        -1.985499        -0.543713
 H         1.838878        -0.856621        -1.735361
 H         4.205757         0.368295        -1.155501
 H         4.130540        -1.023855         1.345933
 H         4.397468         0.745386         1.572280
 H         0.964525         1.186719         2.391404
 H         0.919359         2.326681        -0.336116
