19
Iteration:  3411
 C        -0.153633        -0.507823         0.244890
 C         1.359818        -0.166040         0.188798
 C         2.181315        -0.777869        -1.005897
 C         3.221187         0.320850        -0.659693
 C         3.723115        -0.115732         0.855922
 C         2.356289         0.295783         1.294791
 O         2.120931         0.414915         2.645234
 C         2.179228         1.152036         0.116942
 O         2.003721         2.602086        -0.078388
 H        -0.261709        -1.529287        -0.153362
 H        -0.529056        -0.682993         1.285443
 H        -0.717983         0.229936        -0.249044
 H         2.562177        -1.775522        -0.759044
 H         1.661257        -0.662055        -1.985199
 H         3.893552         0.589182        -1.464420
 H         4.093545        -1.064912         1.211303
 H         4.574170         0.592509         1.176740
 H         1.221989         0.010125         2.794547
 H         1.315941         2.584849        -0.769942
