19
Iteration:   406
 C        -0.053862         0.040579         0.188589
 C         1.442260        -0.244319         0.090696
 C         2.427587        -1.048389        -0.809699
 C         3.485328         0.045198        -0.473599
 C         3.792524         0.004016         1.251074
 C         2.305960         0.326741         1.333284
 O         1.796366         0.672361         2.612541
 C         2.184422         0.975591        -0.083856
 O         1.684629         2.261016        -0.430456
 H        -0.164322         0.936762         0.880062
 H        -0.498489         0.421295        -0.766656
 H        -0.717888        -0.806184         0.491451
 H         2.785547        -2.088561        -0.593671
 H         2.145896        -0.974159        -1.820027
 H         4.354713         0.327449        -1.169297
 H         3.948428        -1.026239         1.611077
 H         4.621659         0.673505         1.537522
 H         0.817886         0.802956         2.755412
 H         2.194840         2.565333        -1.221587
