19
Iteration:  1656
 C        -0.075845        -0.406583         0.513944
 C         1.411944        -0.211878         0.201431
 C         2.391158        -1.038206        -0.662090
 C         3.426413         0.095025        -0.562700
 C         3.819743         0.007697         0.946971
 C         2.361409         0.471937         1.266342
 O         1.767114         0.805141         2.416102
 C         2.181715         1.088480        -0.079269
 O         1.780438         2.382914        -0.389031
 H        -0.688549         0.533357         0.545525
 H        -0.629551        -1.088287        -0.098054
 H        -0.154658        -0.933133         1.471427
 H         2.620825        -2.058993        -0.288640
 H         1.967259        -1.071552        -1.700713
 H         4.011024         0.457291        -1.520801
 H         4.149032        -1.077898         1.393046
 H         4.499983         0.727609         1.346498
 H         1.395540        -0.023169         2.827928
 H         2.067356         2.431878        -1.338259
