19
Iteration:   638charge 0 multiplicity 1
 C        -0.073549        -0.224295         0.179657
 C         1.487266        -0.101105         0.169222
 C         2.336768        -0.938165        -0.787617
 C         3.507529         0.162599        -0.369563
 C         3.702481        -0.151261         1.186253
 C         2.359424         0.521864         1.330071
 O         1.745181         0.581397         2.580888
 C         2.282533         1.193432         0.024405
 O         1.678009         2.205025        -0.647291
 H        -0.471811         0.491364         0.916215
 H        -0.603798         0.137207        -0.738148
 H        -0.435039        -1.268408         0.377824
 H         2.471822        -1.992746        -0.335501
 H         1.892608        -1.000629        -1.742189
 H         4.288233         0.337872        -1.042701
 H         3.746656        -1.205313         1.369021
 H         4.629464         0.347691         1.573243
 H         2.330690         0.038094         3.171686
 H         2.339745         2.946380        -0.712293
