19
Iteration:  4905charge 0 multiplicity 1
 C        -0.179548        -0.027255         0.161799
 C         1.275013         0.193176        -0.046942
 C         2.059482        -0.014187        -1.361091
 C         3.246831         0.643936        -0.671595
 C         3.762090        -0.370583         0.375441
 C         2.379744        -0.213288         1.156423
 O         2.127296        -0.654030         2.474989
 C         2.220126         1.210774         0.492552
 O         2.043307         2.576262         0.937846
 H        -0.770716         0.880791         0.218727
 H        -0.472545        -0.624495        -0.717545
 H        -0.388706        -0.672978         1.020424
 H         2.297553        -0.872154        -1.905946
 H         1.670795         0.640140        -2.166323
 H         3.814478         1.340420        -1.233213
 H         4.211390        -1.252238        -0.104358
 H         4.497742        -0.031691         1.030236
 H         1.604365        -1.503036         2.370278
 H         1.854431         3.210824         0.218043
