19
Iteration:  3084charge 0 multiplicity 1
 C        -0.037322        -0.310056         0.478367
 C         1.471979        -0.151937         0.170440
 C         2.172973        -0.771897        -0.954136
 C         3.279979         0.328019        -0.549986
 C         3.810275        -0.161259         0.862293
 C         2.478329         0.355053         1.324093
 O         1.852764         0.235197         2.632677
 C         2.212527         1.209399         0.042098
 O         1.751782         2.437568        -0.386924
 H        -0.352546         0.038215         1.568108
 H        -0.888864         0.110417        -0.151039
 H        -0.228425        -1.373425         0.526938
 H         2.412763        -1.871156        -0.806276
 H         1.745494        -0.492248        -1.943307
 H         4.065132         0.644012        -1.214436
 H         4.203139        -1.210417         1.067890
 H         4.666227         0.450049         1.156508
 H         1.946011         1.119697         3.060395
 H         2.287479         2.812307        -1.101613
