19
Iteration:  4601
 C        -0.154693        -0.086564         0.231378
 C         1.314194         0.092059        -0.055750
 C         2.085740        -0.047247        -1.385798
 C         3.313421         0.576781        -0.672165
 C         3.771828        -0.420264         0.476393
 C         2.364498        -0.087267         1.164310
 O         2.093446        -0.456470         2.523219
 C         2.240733         1.257484         0.385299
 O         1.911451         2.539421         0.725669
 H        -0.421285        -0.290429         1.295011
 H        -0.808007         0.672412        -0.174791
 H        -0.340617        -1.095537        -0.161853
 H         2.151658        -1.119063        -1.472412
 H         1.701528         0.313157        -2.366188
 H         4.241916         0.943402        -1.155382
 H         4.057395        -1.401594         0.000713
 H         4.609922        -0.028649         0.985540
 H         1.143043        -0.776233         2.593083
 H         2.564183         2.986499         1.347153
