19
Iteration:  4390charge 0 multiplicity 1
 C        -0.204013        -0.130614         0.358943
 C         1.353612         0.029299         0.142190
 C         2.082618        -0.212424        -1.280834
 C         3.412063         0.558567        -0.603608
 C         3.765684        -0.318595         0.554513
 C         2.418364         0.032464         1.230463
 O         2.050902        -0.528522         2.473428
 C         2.271506         1.311140         0.265783
 O         1.870995         2.603702         0.347416
 H        -0.506198         0.506610         1.173887
 H        -0.758660         0.044012        -0.571076
 H        -0.424653        -1.218378         0.638326
 H         2.270510        -1.220554        -1.663512
 H         1.619567         0.345290        -2.111928
 H         4.123231         1.070253        -1.217890
 H         3.924095        -1.400393         0.385190
 H         4.500341         0.226511         1.101438
 H         1.157443        -0.858848         2.637438
 H         2.355958         3.013270         1.072076
