19
Iteration:  3370charge 0 multiplicity 1
 C        -0.214282        -0.398621         0.241664
 C         1.341595        -0.175308         0.121173
 C         2.258011        -0.749195        -1.027991
 C         3.361957         0.197228        -0.664482
 C         3.806773        -0.216515         0.841132
 C         2.421639         0.195073         1.283553
 O         2.133019         0.652035         2.541137
 C         2.201424         1.167902         0.162220
 O         1.676452         2.460416         0.079315
 H        -0.526832        -1.158952        -0.577484
 H        -0.625751        -0.561652         1.196766
 H        -0.778052         0.534215         0.007303
 H         2.589481        -1.784156        -1.063197
 H         1.721397        -0.621686        -1.964741
 H         4.203952         0.566447        -1.320132
 H         4.202668        -1.330604         1.116593
 H         4.598901         0.309622         1.327155
 H         1.627806         0.035347         3.081364
 H         2.111714         2.940660        -0.632294
