19
Iteration:   655
 C        -0.004199        -0.155116         0.346339
 C         1.414829        -0.119994         0.076813
 C         2.430655        -1.003515        -0.729797
 C         3.452126         0.148107        -0.429479
 C         3.705592        -0.053175         1.079251
 C         2.254460         0.337687         1.330774
 O         1.669794         0.642784         2.605419
 C         2.249362         1.072347        -0.083976
 O         1.806801         2.281210        -0.640471
 H        -0.285567         0.289516         1.319280
 H        -0.604618         0.318543        -0.435793
 H        -0.264288        -1.204562         0.380027
 H         2.750769        -1.978463        -0.454351
 H         2.322213        -0.927361        -1.871046
 H         4.353022         0.469031        -1.066953
 H         3.998000        -1.097598         1.446442
 H         4.380042         0.663865         1.545623
 H         1.811878        -0.118617         3.249864
 H         2.066535         3.054287        -0.075503
