19
Iteration:  4367
 C        -0.068232        -0.148203         0.282386
 C         1.328767         0.026933        -0.023982
 C         2.113093        -0.262465        -1.244653
 C         3.178186         0.571123        -0.593483
 C         3.725465        -0.331185         0.631041
 C         2.379969        -0.014805         1.212815
 O         2.125549        -0.473322         2.486777
 C         2.167979         1.268589         0.369243
 O         1.956147         2.661632         0.374426
 H        -0.172405        -0.152983         1.353067
 H        -0.709055         0.606890        -0.197442
 H        -0.388236        -1.150748        -0.144936
 H         2.238887        -1.314354        -1.405302
 H         1.858893         0.195626        -2.201486
 H         3.790285         1.058572        -1.291258
 H         3.905513        -1.365381         0.338993
 H         4.521322         0.283036         1.079389
 H         1.256459        -0.685387         2.866054
 H         2.695631         3.141554         0.812359
