19
Iteration:  3142charge 0 multiplicity 1
 C        -0.138463        -0.375214         0.292397
 C         1.385479        -0.158862         0.153804
 C         2.220273        -0.833597        -0.905092
 C         3.331995         0.230138        -0.644036
 C         3.791721        -0.143173         0.813384
 C         2.413627         0.303108         1.253704
 O         1.998749         0.550815         2.566810
 C         2.109852         1.114506         0.057329
 O         1.827537         2.454845        -0.114981
 H        -0.677984         0.538307         0.386896
 H        -0.381886        -0.947479        -0.540053
 H        -0.218880        -1.003960         1.207544
 H         2.323392        -1.903795        -0.729499
 H         1.780162        -0.685693        -1.896604
 H         4.052047         0.363663        -1.471379
 H         3.967088        -1.199413         1.079896
 H         4.521831         0.643120         1.179257
 H         2.786766         0.671046         3.120933
 H         1.452184         2.762269         0.745691
