19
Iteration:  1170
 C        -0.047407        -0.600776         0.180111
 C         1.398806        -0.177331         0.144199
 C         2.359695        -0.878339        -0.834085
 C         3.462624         0.119478        -0.406788
 C         3.631158        -0.150458         1.151589
 C         2.267605         0.333436         1.354200
 O         1.844875         1.002356         2.499598
 C         2.244045         1.073726         0.040662
 O         1.860853         2.335735        -0.450524
 H        -0.756186        -0.057793         0.828345
 H        -0.485404        -0.468060        -0.850674
 H        -0.023100        -1.706044         0.369049
 H         2.597224        -1.968667        -0.933265
 H         1.962121        -0.491580        -1.812530
 H         4.264825         0.267162        -1.134077
 H         3.997837        -1.173590         1.479211
 H         4.368448         0.608970         1.374080
 H         0.899349         0.913059         2.784109
 H         2.285734         3.008814         0.121777
