19
Iteration:     7charge 0 multiplicity 1
 C        -0.131176        -0.337193         0.242701
 C         1.422194        -0.160415         0.138323
 C         2.373055        -1.027440        -0.776010
 C         3.430046         0.088689        -0.434471
 C         3.745264        -0.092682         1.101232
 C         2.337084         0.380426         1.352162
 O         1.713072         0.851718         2.463610
 C         2.219305         1.080773        -0.012204
 O         1.926759         2.343392        -0.444977
 H        -0.655836         0.372968         0.908635
 H        -0.668686        -0.300785        -0.721932
 H        -0.231991        -1.320179         0.751048
 H         2.758514        -2.108992        -0.628637
 H         1.889178        -0.856742        -1.760593
 H         4.191929         0.236743        -1.258509
 H         3.987500        -1.182468         1.183893
 H         4.487814         0.684385         1.365789
 H         1.194249         0.144883         2.858866
 H         2.259867         3.000827         0.227008
