19
Iteration:  3520
 C        -0.056062        -0.257669         0.154952
 C         1.344029        -0.124084         0.112818
 C         2.218589        -0.714062        -1.040098
 C         3.286057         0.276923        -0.657361
 C         3.778699        -0.264675         0.817023
 C         2.363408         0.188462         1.305609
 O         2.088040         0.445859         2.730178
 C         2.143147         1.134249         0.071020
 O         1.759421         2.451502         0.083478
 H        -0.592817         0.246454         1.022033
 H        -0.393607         0.427332        -0.714039
 H        -0.367370        -1.269433         0.043979
 H         2.549237        -1.789395        -1.116534
 H         1.646211        -0.436834        -1.975700
 H         4.033723         0.634030        -1.408851
 H         4.130471        -1.251167         0.966219
 H         4.510687         0.553994         1.203380
 H         2.794179        -0.039900         3.177909
 H         1.394233         2.663764        -0.790429
