19
Iteration:  4012charge 0 multiplicity 1
 C         0.022554        -0.274376         0.450131
 C         1.429943         0.020861        -0.028084
 C         2.177206        -0.409499        -1.253408
 C         3.304896         0.407288        -0.702329
 C         3.755969        -0.367152         0.674653
 C         2.377300         0.108765         1.180023
 O         1.857846        -0.026849         2.546940
 C         2.206628         1.255536         0.242855
 O         1.842336         2.585231         0.279913
 H        -0.768026         0.135726        -0.237869
 H        -0.231388        -1.367649         0.561474
 H        -0.109865         0.252575         1.379359
 H         2.226441        -1.539997        -1.171743
 H         1.681182        -0.168762        -2.216530
 H         4.056189         0.954273        -1.181643
 H         3.847649        -1.444396         0.591087
 H         4.707981         0.032571         1.217456
 H         1.952476        -0.964304         2.809182
 H         2.337052         3.244345         0.832387
