19
Iteration:  4199charge 0 multiplicity 1
 C        -0.078272        -0.207771         0.402140
 C         1.352900         0.010047        -0.001948
 C         2.186708        -0.332162        -1.282503
 C         3.308471         0.500389        -0.649548
 C         3.650689        -0.328102         0.668345
 C         2.294506         0.045201         1.215131
 O         2.033649        -0.222506         2.506310
 C         2.242160         1.268704         0.306876
 O         1.883104         2.581998         0.315257
 H        -0.585675         0.800092         0.153391
 H        -0.577258        -0.864456        -0.357112
 H        -0.224795        -0.568137         1.424414
 H         2.576787        -1.351178        -1.496188
 H         1.718250         0.035816        -2.207735
 H         4.066216         0.912783        -1.396369
 H         3.793130        -1.357324         0.286364
 H         4.498327         0.132964         1.360713
 H         2.289200        -1.098533         2.840049
 H         2.489178         3.088841         0.931661
