19
Iteration:  3950
 C        -0.126046        -0.148184         0.194989
 C         1.339885        -0.077806         0.107344
 C         2.163173        -0.562685        -1.218561
 C         3.291215         0.360876        -0.632437
 C         3.793422        -0.186214         0.630154
 C         2.398256         0.011429         1.222006
 O         2.087258         0.017779         2.682526
 C         2.173796         1.231819         0.225034
 O         1.857255         2.563280         0.248919
 H        -0.488370         0.659798         0.872005
 H        -0.612489        -0.088154        -0.797791
 H        -0.459764        -1.116002         0.634973
 H         2.229392        -1.615933        -1.495577
 H         1.713707         0.046640        -2.018610
 H         3.979045         0.902959        -1.313487
 H         4.074632        -1.259723         0.526381
 H         4.574004         0.458447         1.103419
 H         1.563713        -0.813259         2.700375
 H         2.116812         2.936478         1.132024
