19
Iteration:  4884
 C        -0.167136         0.128476         0.198653
 C         1.354454         0.055669        -0.009175
 C         2.071210        -0.033335        -1.362593
 C         3.281686         0.724965        -0.599800
 C         3.721985        -0.363343         0.398274
 C         2.463153        -0.151434         1.133842
 O         2.146428        -0.611173         2.367168
 C         2.212675         1.205526         0.500000
 O         1.893576         2.405013         0.889190
 H        -0.328255         1.070350         0.757087
 H        -0.796746         0.196746        -0.710671
 H        -0.553133        -0.697354         0.813792
 H         2.347521        -1.027342        -1.733656
 H         1.539960         0.330746        -2.221403
 H         3.991433         1.315551        -1.139633
 H         3.853688        -1.432450         0.059890
 H         4.557706        -0.068822         0.980719
 H         1.653332        -1.439628         2.285287
 H         2.049468         3.190451         0.304179
