19
Iteration:  2697charge 0 multiplicity 1
 C        -0.086408        -0.599266         0.545491
 C         1.365353        -0.119630         0.122569
 C         2.271710        -0.827626        -0.876041
 C         3.332668         0.215614        -0.526935
 C         3.702169        -0.117645         1.018563
 C         2.329480         0.380748         1.253127
 O         1.821427         0.538984         2.556778
 C         2.181318         1.130690        -0.047574
 O         2.058204         2.514995        -0.454001
 H        -0.529589        -1.017989        -0.387462
 H         0.133378        -1.432204         1.332245
 H        -0.744842         0.254626         0.957946
 H         2.547613        -1.917527        -0.731210
 H         2.000235        -0.632392        -1.929342
 H         4.102270         0.540909        -1.201111
 H         3.936411        -1.099042         1.490694
 H         4.351891         0.587778         1.443258
 H         2.030768         1.433000         2.862069
 H         1.146632         2.635947        -0.787058
