19
Iteration:   565charge 0 multiplicity 1
 C        -0.161082        -0.247771         0.218372
 C         1.393054        -0.262059         0.099200
 C         2.376354        -1.037479        -0.735214
 C         3.472043         0.090524        -0.450367
 C         3.776004        -0.061963         1.099181
 C         2.319274         0.299833         1.215652
 O         1.794919         0.766323         2.543961
 C         2.277297         1.072720        -0.106783
 O         1.833015         2.411110        -0.336634
 H        -0.404195         0.798488         0.350617
 H        -0.585618        -0.433970        -0.772908
 H        -0.650933        -0.896062         0.959417
 H         2.648257        -1.995785        -0.387795
 H         2.137062        -1.065257        -1.828491
 H         4.301347         0.253800        -1.145471
 H         3.987774        -1.084103         1.479203
 H         4.413095         0.694552         1.582179
 H         0.787482         0.671744         2.469637
 H         2.085856         2.941492         0.461473
