19
Iteration:   635charge 0 multiplicity 1
 C        -0.063595        -0.243336         0.143094
 C         1.472960        -0.091831         0.205437
 C         2.336528        -0.916859        -0.768635
 C         3.488701         0.147530        -0.364500
 C         3.707985        -0.163027         1.183390
 C         2.369992         0.521883         1.337598
 O         1.766605         0.578224         2.576803
 C         2.262443         1.205040         0.030955
 O         1.666012         2.205066        -0.645113
 H        -0.490127         0.534460         0.822286
 H        -0.531782         0.108398        -0.794383
 H        -0.460082        -1.226517         0.395538
 H         2.472284        -1.884073        -0.401948
 H         1.996317        -0.889151        -1.834969
 H         4.352607         0.239374        -1.086898
 H         3.698042        -1.283347         1.465533
 H         4.658474         0.298814         1.509627
 H         2.347894         0.115034         3.239815
 H         2.322243         2.911964        -0.863173
