19
Iteration:  1622charge 0 multiplicity 1
 C        -0.087410        -0.607239         0.443559
 C         1.364065        -0.222000         0.156428
 C         2.265227        -0.990974        -0.806839
 C         3.375438         0.150310        -0.514658
 C         3.704181         0.057111         1.022130
 C         2.273620         0.443823         1.312782
 O         1.868710         0.847736         2.649118
 C         2.139857         1.088465        -0.018407
 O         2.070982         2.378956        -0.635627
 H        -0.834183         0.210525         0.550155
 H        -0.365606        -1.376618        -0.268700
 H         0.019747        -1.000692         1.465995
 H         2.632129        -2.037326        -0.751426
 H         1.892951        -0.816635        -1.840806
 H         3.789746         0.575995        -1.480941
 H         4.190925        -0.955107         1.502077
 H         4.202942         0.916786         1.412673
 H         2.109874         0.183958         3.352815
 H         1.113478         2.619316        -0.735213
