19
Iteration:  2701charge 0 multiplicity 1
 C        -0.112494        -0.618343         0.565161
 C         1.356857        -0.157535         0.146523
 C         2.258617        -0.817293        -0.839436
 C         3.359080         0.221514        -0.506080
 C         3.695882        -0.134917         0.943943
 C         2.312223         0.414293         1.267981
 O         1.801912         0.540065         2.542030
 C         2.184922         1.136417        -0.050854
 O         2.086334         2.528388        -0.454053
 H        -0.365843        -1.137296        -0.391296
 H         0.101776        -1.409893         1.268269
 H        -0.772091         0.154669         0.813068
 H         2.520704        -1.855100        -0.668505
 H         2.042240        -0.548139        -1.881547
 H         4.179981         0.471471        -1.211425
 H         3.987920        -1.079548         1.286742
 H         4.386159         0.678702         1.454204
 H         2.091124         1.419007         2.861732
 H         1.157013         2.652887        -0.699547
