19
Iteration:   163
 C        -0.091024         0.045061         0.097462
 C         1.421725        -0.133605         0.144349
 C         2.410860        -1.069183        -0.694347
 C         3.396747         0.067326        -0.377701
 C         3.703918        -0.034453         1.055318
 C         2.314696         0.402220         1.371963
 O         1.941990         0.593840         2.729482
 C         2.192124         1.082529         0.003557
 O         1.728447         2.215746        -0.666459
 H        -0.523116         0.643876         0.914678
 H        -0.264200         0.586530        -0.855017
 H        -0.634175        -0.921382         0.026806
 H         2.637184        -2.123205        -0.377813
 H         2.241981        -0.969208        -1.707592
 H         4.155586         0.275242        -1.071301
 H         3.983689        -1.148205         1.164371
 H         4.444529         0.649583         1.444233
 H         1.731752        -0.339530         3.025836
 H         1.510286         3.039550        -0.210612
