19
Iteration:   645
 C        -0.068677        -0.175423         0.256361
 C         1.474769        -0.116534         0.087638
 C         2.359218        -0.981270        -0.757180
 C         3.495873         0.163829        -0.389231
 C         3.705093        -0.099904         1.145080
 C         2.327094         0.465891         1.354778
 O         1.704011         0.603723         2.594651
 C         2.309158         1.133583        -0.020783
 O         1.716789         2.230748        -0.651177
 H        -0.448526         0.319846         1.176410
 H        -0.558263         0.145213        -0.665151
 H        -0.309208        -1.225912         0.385643
 H         2.562112        -1.960929        -0.443074
 H         1.854039        -1.089766        -1.768879
 H         4.355688         0.558398        -1.029285
 H         3.822617        -1.234749         1.303815
 H         4.459883         0.472683         1.704119
 H         2.235919        -0.086800         3.108800
 H         2.251331         3.039475        -0.427530
