19
Iteration:  4459
 C        -0.145830        -0.000195         0.190120
 C         1.326302         0.025774        -0.048823
 C         2.103840        -0.220919        -1.325491
 C         3.342277         0.501247        -0.682039
 C         3.828733        -0.411530         0.517177
 C         2.437030        -0.104405         1.122735
 O         2.089310        -0.135889         2.496894
 C         2.242024         1.192228         0.380716
 O         1.750087         2.440266         0.735532
 H        -0.704224         0.431998        -0.694142
 H        -0.448790        -1.063971         0.265291
 H        -0.557897         0.488422         1.093438
 H         2.152350        -1.310970        -1.577186
 H         1.648698         0.284745        -2.234730
 H         4.225041         1.024863        -1.192615
 H         4.149685        -1.428096         0.232165
 H         4.593306         0.177761         0.986142
 H         1.735718        -1.056029         2.696567
 H         2.365687         2.748465         1.449409
