19
Iteration:  2637
 C        -0.029733        -0.149502         0.317214
 C         1.429219        -0.292998         0.215562
 C         2.295965        -1.052150        -0.792906
 C         3.433029         0.228392        -0.531348
 C         3.853106        -0.086875         0.940856
 C         2.461202         0.296929         1.265644
 O         1.827184         0.668703         2.424346
 C         2.222678         1.093021         0.010595
 O         1.603122         2.318938        -0.179917
 H        -0.356420         0.869126        -0.012475
 H        -0.556249        -0.768410        -0.375893
 H        -0.483055        -0.268712         1.280053
 H         2.581884        -2.042899        -0.473606
 H         1.922176        -1.038275        -1.843116
 H         4.177776         0.563696        -1.302692
 H         4.115592        -1.197687         1.224536
 H         4.500521         0.725457         1.484406
 H         2.119660         1.552366         2.678607
 H         1.302836         2.322086        -1.100627
