19
Iteration:  4535charge 0 multiplicity 1
 C        -0.094721        -0.336414         0.231774
 C         1.256299         0.168164        -0.019246
 C         2.057406        -0.157222        -1.401664
 C         3.247312         0.554942        -0.623195
 C         3.745135        -0.309993         0.455404
 C         2.340541        -0.037218         1.109636
 O         1.940512        -0.169524         2.444092
 C         2.223076         1.192137         0.375369
 O         2.176467         2.482109         0.805328
 H        -0.193319        -1.400941        -0.053918
 H        -0.499325        -0.330146         1.215452
 H        -0.726993         0.143115        -0.501780
 H         2.336465        -1.141229        -1.650325
 H         1.798449         0.388623        -2.328159
 H         4.054872         0.971039        -1.316517
 H         4.150068        -1.318359         0.226700
 H         4.444007         0.308996         0.933643
 H         1.533433        -0.959536         2.775065
 H         2.137535         2.406703         1.768016
