19
Iteration:  4216charge 0 multiplicity 1
 C        -0.193770        -0.189105         0.236743
 C         1.293942        -0.034382         0.064007
 C         2.133169        -0.397480        -1.198816
 C         3.308708         0.526141        -0.596444
 C         3.817002        -0.356115         0.591448
 C         2.438847        -0.024793         1.181039
 O         2.022058        -0.184711         2.514463
 C         2.210892         1.250666         0.288976
 O         1.889643         2.684715         0.364873
 H        -0.822499         0.543582        -0.227071
 H        -0.468066        -1.224721         0.042117
 H        -0.356291        -0.018294         1.314456
 H         2.130122        -1.489507        -1.408677
 H         1.676260         0.102824        -2.064313
 H         4.017525         1.084596        -1.154203
 H         4.208059        -1.394128         0.544899
 H         4.578344         0.213854         0.996173
 H         2.051670        -1.148991         2.569810
 H         2.493226         2.992500         1.099826
