19
Iteration:  1347
 C        -0.097466        -0.494418         0.173805
 C         1.402613        -0.258546         0.210599
 C         2.371012        -0.938824        -0.812805
 C         3.413466         0.226988        -0.485256
 C         3.761671        -0.063255         1.031522
 C         2.276880         0.275401         1.374083
 O         1.856692         0.919571         2.566260
 C         2.262366         1.088955         0.047122
 O         1.900127         2.313482        -0.439726
 H        -0.701778         0.416975         0.245521
 H        -0.293240        -0.968842        -0.773384
 H        -0.358465        -1.104957         1.065577
 H         2.516704        -2.021462        -0.406520
 H         1.826118        -0.763017        -1.752078
 H         4.135861         0.373133        -1.261142
 H         4.071382        -1.076314         1.297159
 H         4.367655         0.713578         1.455413
 H         0.897585         1.171944         2.425155
 H         0.956042         2.469552        -0.217052
