19
Iteration:  1967
 C         0.040726        -0.244126         0.748424
 C         1.499216        -0.188221         0.228465
 C         2.335252        -0.957409        -0.731639
 C         3.437803         0.168801        -0.537042
 C         3.751334        -0.043308         0.959234
 C         2.389595         0.405654         1.332445
 O         1.684933         0.626911         2.464354
 C         2.207515         1.085690        -0.116754
 O         1.751324         2.311065        -0.689008
 H        -0.089972         0.295929         1.709150
 H        -0.871538        -0.125165         0.051939
 H         0.092423        -1.318844         0.973163
 H         2.808815        -1.923839        -0.436400
 H         1.767703        -1.021120        -1.678246
 H         4.204814         0.249118        -1.360807
 H         4.003293        -1.054773         1.247470
 H         4.492009         0.596695         1.416048
 H         1.897699         1.520042         2.855495
 H         0.972971         2.019839        -1.224487
