19
Iteration:   517charge 0 multiplicity 1
 C        -0.126553        -0.545596         0.447509
 C         1.336218        -0.201971         0.063209
 C         2.385726        -0.971201        -0.874611
 C         3.415160         0.105348        -0.537108
 C         3.735161        -0.188016         1.113911
 C         2.292364         0.405433         1.242468
 O         1.508530         0.863435         2.297790
 C         2.271895         1.102156        -0.006876
 O         2.130009         2.478621        -0.281524
 H        -0.466071         0.285357         1.142789
 H        -0.853408        -0.597401        -0.396685
 H        -0.024907        -1.438108         1.125515
 H         2.760149        -2.068827        -0.552882
 H         2.100815        -0.961215        -1.914534
 H         4.275785         0.471513        -1.132594
 H         3.907466        -1.184781         1.475560
 H         4.476103         0.553429         1.492561
 H         1.984604         1.034701         3.102693
 H         2.094928         2.936547         0.565784
