19
Iteration:   410
 C        -0.088919         0.010291         0.174756
 C         1.440439        -0.276471         0.088089
 C         2.447389        -1.048571        -0.775107
 C         3.490920         0.038849        -0.447917
 C         3.757265         0.001058         1.206107
 C         2.266445         0.333452         1.318594
 O         1.821350         0.667715         2.609643
 C         2.199123         1.040831        -0.051464
 O         1.708302         2.275348        -0.431574
 H        -0.109506         0.783724         0.916176
 H        -0.477457         0.451351        -0.723712
 H        -0.711354        -0.809096         0.491933
 H         2.716073        -2.052992        -0.651073
 H         2.140645        -0.973756        -1.852013
 H         4.318371         0.241651        -1.127336
 H         4.004175        -0.987332         1.653935
 H         4.628310         0.676486         1.446671
 H         0.893393         0.842121         2.654687
 H         2.165944         2.505971        -1.238656
