19
Iteration:  2929
 C         0.004041        -0.434153         0.505831
 C         1.417063        -0.151848         0.075380
 C         2.276286        -0.864471        -0.892486
 C         3.391468         0.166879        -0.616740
 C         3.827439        -0.143547         0.885306
 C         2.346360         0.322601         1.252451
 O         1.760776         0.599394         2.498132
 C         2.162435         1.177503        -0.026317
 O         1.753556         2.468587        -0.197749
 H        -0.698128        -0.521932        -0.334983
 H        -0.174604        -1.416768         1.070499
 H        -0.422042         0.321517         1.145878
 H         2.523072        -1.939767        -0.782189
 H         2.037419        -0.791203        -1.974360
 H         4.154931         0.437347        -1.365113
 H         3.966477        -1.319304         1.016713
 H         4.514855         0.494075         1.441054
 H         2.493208         0.756038         3.112593
 H         2.460070         2.990733         0.226908
