19
Iteration:  1254
 C        -0.099656        -0.273189         0.408958
 C         1.488050        -0.324346         0.223131
 C         2.447396        -1.049054        -0.760318
 C         3.430410         0.150641        -0.498184
 C         3.780691         0.147318         1.061094
 C         2.287916         0.490340         1.317403
 O         1.490484         0.576524         2.443514
 C         2.189600         1.023630        -0.149121
 O         2.017335         2.361875        -0.404468
 H        -0.427179         0.138101         1.377612
 H        -0.571925         0.270510        -0.401804
 H        -0.450244        -1.265949         0.422742
 H         2.789487        -2.026388        -0.433817
 H         2.202808        -0.931307        -1.776108
 H         4.215613         0.314765        -1.175946
 H         4.227371        -0.742808         1.440507
 H         4.501184         0.967681         1.079824
 H         2.060314         0.805801         3.171177
 H         1.227764         2.436455        -0.998138
