19
Iteration:   120charge 0 multiplicity 1
 C        -0.087512        -0.225887         0.331096
 C         1.431198        -0.183903         0.139427
 C         2.343675        -0.958446        -0.821869
 C         3.455990         0.066649        -0.430103
 C         3.783636        -0.140226         1.032844
 C         2.334342         0.378145         1.309903
 O         1.633891         0.822329         2.448231
 C         2.324626         1.041529         0.074296
 O         1.832516         2.314673        -0.411018
 H        -0.335276         0.489712         1.092013
 H        -0.639230         0.061651        -0.540014
 H        -0.329141        -1.172446         0.782105
 H         2.447666        -2.102701        -0.788062
 H         2.117708        -0.577997        -1.778332
 H         4.074442         0.344394        -1.227844
 H         3.827877        -1.170282         1.307488
 H         4.519151         0.542426         1.352179
 H         1.438451         0.135460         3.176089
 H         2.577479         2.498192        -1.029319
