19
Iteration:  3822
 C        -0.104303        -0.404771         0.333096
 C         1.284871        -0.008255         0.065596
 C         2.125069        -0.549883        -1.078012
 C         3.248508         0.407100        -0.612475
 C         3.751767        -0.230113         0.749065
 C         2.399686         0.289074         1.222634
 O         1.988504        -0.013292         2.543160
 C         2.125362         1.239740         0.134844
 O         2.126325         2.608669         0.124978
 H        -0.647792        -0.809235        -0.547973
 H        -0.034837        -1.214882         1.100525
 H        -0.782228         0.438110         0.734007
 H         2.352949        -1.664246        -1.124135
 H         1.692729        -0.280094        -2.085609
 H         3.965095         0.932586        -1.314517
 H         3.949530        -1.335568         1.080970
 H         4.513851         0.354423         1.209223
 H         2.117529        -0.933168         2.808431
 H         1.276235         3.041704         0.251777
