19
Iteration:  3969
 C        -0.079548        -0.229990         0.301561
 C         1.325767        -0.059330         0.072433
 C         2.069060        -0.381627        -1.183721
 C         3.293296         0.513183        -0.662543
 C         3.729802        -0.265413         0.761945
 C         2.384433         0.046180         1.210782
 O         2.047548        -0.055335         2.550918
 C         2.221528         1.156508         0.249077
 O         1.919332         2.531435         0.142975
 H        -0.466673         0.806570         0.516174
 H        -0.623568        -0.582007        -0.614188
 H        -0.382933        -0.731610         1.197920
 H         2.551401        -1.404442        -1.210323
 H         1.617748        -0.154224        -2.175156
 H         3.990833         0.871166        -1.356659
 H         4.136518        -1.263071         0.925910
 H         4.383344         0.612670         1.258704
 H         2.036729        -0.992830         2.889726
 H         2.157090         2.824384         1.048840
