19
Iteration:  1299charge 0 multiplicity 1
 C        -0.066050        -0.383988         0.214399
 C         1.423582        -0.168622         0.068601
 C         2.420798        -0.987973        -0.751025
 C         3.518577         0.086073        -0.416291
 C         3.693956        -0.091763         1.127103
 C         2.259575         0.378391         1.295655
 O         1.867738         0.831812         2.576991
 C         2.235482         1.148161        -0.051309
 O         1.644439         2.319310        -0.458471
 H        -0.516028         0.423520         0.797827
 H        -0.470553        -0.364354        -0.805805
 H        -0.261436        -1.275837         0.796129
 H         2.804007        -1.969741        -0.353795
 H         2.082013        -0.882628        -1.790677
 H         4.382548         0.467106        -1.032708
 H         3.894042        -1.124051         1.415369
 H         4.244731         0.669105         1.663802
 H         1.692718         0.046901         3.113500
 H         2.312588         2.805419        -0.978879
