19
Iteration:  2947
 C        -0.089877        -0.488896         0.401962
 C         1.367226        -0.207428         0.156456
 C         2.325286        -0.847084        -0.945822
 C         3.324204         0.247558        -0.548323
 C         3.686963        -0.159459         0.894535
 C         2.325026         0.288967         1.225172
 O         1.914589         0.716298         2.426438
 C         2.184115         1.088417        -0.037278
 O         1.837209         2.425075        -0.087511
 H        -0.523387        -1.034197        -0.442345
 H        -0.029139        -1.145681         1.292149
 H        -0.614076         0.505558         0.590301
 H         2.682707        -1.905125        -0.770585
 H         1.800800        -0.958102        -1.931212
 H         4.089563         0.672491        -1.233847
 H         3.983126        -1.172910         1.122077
 H         4.415945         0.595323         1.199149
 H         2.621048         1.173668         2.910654
 H         2.259713         2.912771         0.646442
