19
Iteration:  1822charge 0 multiplicity 1
 C        -0.026161        -0.367877         0.699286
 C         1.354463        -0.219336         0.118954
 C         2.329876        -1.025863        -0.807711
 C         3.390671         0.117562        -0.559283
 C         3.839996        -0.085904         0.975241
 C         2.471840         0.474720         1.267288
 O         1.700777         0.807444         2.415698
 C         2.203993         1.005718        -0.080472
 O         1.814018         2.346968        -0.356737
 H        -0.196267         0.431202         1.407996
 H        -0.699867        -0.344988        -0.196747
 H        -0.217269        -1.294386         1.254176
 H         2.671220        -2.040252        -0.528141
 H         1.814389        -1.191510        -1.780148
 H         4.029626         0.562039        -1.332996
 H         4.128147        -1.002983         1.560790
 H         4.558580         0.607739         0.919670
 H         1.227424         1.630598         2.291671
 H         1.868615         2.354078        -1.329570
