19
Iteration:  4000
 C        -0.070210        -0.251133         0.463428
 C         1.291789         0.017537        -0.034000
 C         2.204584        -0.452270        -1.263057
 C         3.332034         0.441959        -0.616097
 C         3.773791        -0.379898         0.627145
 C         2.502971         0.059684         1.298789
 O         1.848920        -0.059190         2.546896
 C         2.192672         1.237275         0.222067
 O         1.834103         2.682588         0.196588
 H        -0.782445         0.441676        -0.036509
 H        -0.341295        -1.332204         0.301143
 H        -0.111924        -0.110195         1.548989
 H         2.669285        -1.476265        -1.397633
 H         1.927187        -0.072331        -2.270344
 H         4.079531         0.741771        -1.302231
 H         4.016104        -1.441141         0.567817
 H         4.663032         0.213736         1.016984
 H         2.045032        -0.939462         2.889773
 H         2.366002         2.890272         0.986590
