19
Iteration:  3246
 C        -0.118135        -0.472494         0.360079
 C         1.293500        -0.045891         0.211549
 C         2.152822        -0.746653        -0.914354
 C         3.250328         0.296712        -0.589205
 C         3.707664        -0.183257         0.813825
 C         2.413938         0.322261         1.241647
 O         2.122110         0.400258         2.620947
 C         2.221657         1.201334         0.077661
 O         1.936248         2.508280        -0.166436
 H        -0.496655        -0.680862        -0.629704
 H        -0.060664        -1.552437         0.784561
 H        -0.795637         0.143070         0.910308
 H         2.542934        -1.765538        -0.863911
 H         1.500582        -0.530141        -1.801443
 H         3.961270         0.608507        -1.328934
 H         4.055503        -1.245988         0.852066
 H         4.619185         0.308504         1.301963
 H         1.195847         0.211776         2.787926
 H         1.694952         2.481271        -1.114197
