19
Iteration:  1614charge 0 multiplicity 1
 C        -0.064305        -0.660405         0.448024
 C         1.348318        -0.241338         0.198417
 C         2.237626        -0.940876        -0.781618
 C         3.361116         0.155528        -0.481630
 C         3.670729         0.035573         1.004411
 C         2.256796         0.454652         1.321072
 O         1.876258         0.855942         2.632434
 C         2.202012         1.151347        -0.045555
 O         2.044628         2.349870        -0.674172
 H        -0.786280         0.186755         0.499429
 H        -0.322476        -1.313479        -0.354309
 H        -0.227013        -1.132803         1.411531
 H         2.586285        -1.994410        -0.823014
 H         1.824520        -0.723636        -1.808368
 H         4.326980         0.334527        -1.206255
 H         4.146251        -0.908539         1.383680
 H         4.203193         0.914225         1.370938
 H         2.306481         0.094516         3.068623
 H         1.262882         2.777582        -0.270725
