19
Iteration:  2671
 C         0.023495        -0.331441         0.499379
 C         1.428434        -0.169467         0.014239
 C         2.298060        -0.910217        -0.934950
 C         3.399803         0.161712        -0.479620
 C         3.720815        -0.093016         0.938574
 C         2.371864         0.396441         1.309258
 O         1.788059         0.573104         2.616112
 C         2.191923         1.071217         0.001514
 O         1.814321         2.401494        -0.363032
 H        -0.690298         0.004975        -0.267225
 H        -0.155943        -1.350047         0.792544
 H        -0.151524         0.260849         1.422212
 H         2.470374        -1.975106        -0.800995
 H         2.114365        -0.756896        -2.016645
 H         4.234792         0.457379        -1.158624
 H         4.058964        -1.186279         1.316239
 H         4.469511         0.638275         1.380808
 H         1.694434         1.502074         2.859742
 H         1.302124         2.275041        -1.185975
