19
Iteration:   294
 C        -0.057203        -0.639239         0.382878
 C         1.295779        -0.183194         0.191417
 C         2.198921        -0.890778        -0.734237
 C         3.332748         0.070999        -0.545033
 C         3.705650        -0.133405         1.023743
 C         2.309549         0.386146         1.267498
 O         1.595093         0.919088         2.296503
 C         2.221797         1.136589        -0.021479
 O         2.372980         2.464643        -0.228163
 H        -0.742853         0.242319         0.337823
 H        -0.252342        -1.310852        -0.518046
 H        -0.219417        -1.325067         1.270148
 H         2.383375        -1.985127        -0.660563
 H         1.874128        -0.821611        -1.745441
 H         3.960451         0.088572        -1.380183
 H         4.205697        -1.002128         1.571572
 H         4.337394         0.691119         1.295670
 H         1.510361         0.402580         3.066036
 H         1.575189         2.901728        -0.541048
