19
Iteration:  3544charge 0 multiplicity 1
 C        -0.240021        -0.315126         0.068288
 C         1.290153        -0.233867         0.129265
 C         2.233780        -0.800098        -0.942858
 C         3.295637         0.315038        -0.656617
 C         3.781316        -0.159789         0.744082
 C         2.419840         0.280059         1.299292
 O         2.114000         0.422997         2.586174
 C         2.172022         1.161454         0.168528
 O         1.836185         2.500824         0.195503
 H        -0.638510         0.763442         0.365320
 H        -0.627630        -0.346508        -0.994426
 H        -0.621887        -1.087839         0.742752
 H         2.674812        -1.840190        -0.986733
 H         1.802790        -0.616501        -1.968954
 H         4.194733         0.618316        -1.288242
 H         4.016516        -1.269243         0.807679
 H         4.595724         0.435479         1.197389
 H         2.766332        -0.041942         3.166488
 H         1.402675         2.602194        -0.674008
