19
Iteration:  1871
 C        -0.165858        -0.484350         0.315317
 C         1.361127        -0.264449         0.221694
 C         2.321635        -1.149508        -0.766566
 C         3.323785         0.079118        -0.565078
 C         3.767718        -0.005465         0.943151
 C         2.393468         0.466691         1.266880
 O         1.995004         0.977723         2.477757
 C         2.156632         1.041848        -0.051027
 O         1.823459         2.380461        -0.223521
 H        -0.766404         0.424660         0.468486
 H        -0.457499        -1.151695        -0.449869
 H        -0.292170        -0.997673         1.271028
 H         2.745024        -2.102133        -0.380891
 H         2.121396        -1.348215        -1.818395
 H         4.081962         0.289248        -1.377475
 H         3.925879        -1.047299         1.125636
 H         4.611600         0.678235         1.451839
 H         2.207517         1.928617         2.631514
 H         1.027009         2.366779        -0.788513
