19
Iteration:  1652
 C        -0.090517        -0.435509         0.521868
 C         1.389021        -0.226451         0.169055
 C         2.352372        -1.034397        -0.682078
 C         3.424063         0.134053        -0.521743
 C         3.804482        -0.009816         0.932262
 C         2.378237         0.511459         1.250082
 O         1.776062         0.800700         2.435284
 C         2.167457         1.080775        -0.033122
 O         1.829638         2.377003        -0.412000
 H        -0.638122         0.512110         0.467993
 H        -0.659908        -1.147637        -0.158651
 H        -0.170205        -0.959798         1.525740
 H         2.764172        -1.999394        -0.315149
 H         2.037164        -1.089019        -1.716392
 H         3.975360         0.380116        -1.343879
 H         4.173828        -0.949685         1.265526
 H         4.456600         0.811089         1.309877
 H         1.480554         0.014367         2.887765
 H         1.985208         2.326706        -1.364120
