19
Iteration:   799charge 0 multiplicity 1
 C        -0.065609        -0.231047         0.253761
 C         1.435210        -0.165006         0.171048
 C         2.324565        -1.057530        -0.679082
 C         3.435418         0.120138        -0.439852
 C         3.779889        -0.031130         1.037038
 C         2.406807         0.521529         1.317382
 O         1.654015         0.639453         2.447367
 C         2.219656         1.045835        -0.081240
 O         1.829971         2.280429        -0.453775
 H        -0.459963         0.771467         0.224755
 H        -0.519243        -0.717599        -0.604533
 H        -0.395753        -0.733583         1.133692
 H         2.840491        -1.968722        -0.435266
 H         2.111227        -0.933081        -1.785904
 H         4.203720         0.284133        -1.113415
 H         3.903627        -1.066379         1.368621
 H         4.630965         0.517630         1.390180
 H         2.209965         0.920970         3.180993
 H         1.491070         2.739726         0.353317
