19
Iteration:  1692charge 0 multiplicity 1
 C        -0.002257        -0.226617         0.447602
 C         1.464803        -0.213505         0.119009
 C         2.417553        -1.102672        -0.725606
 C         3.451983        -0.028827        -0.542215
 C         3.810747         0.017170         0.980122
 C         2.402067         0.452110         1.236991
 O         1.850999         0.903477         2.452815
 C         2.182777         1.046991        -0.021687
 O         1.533127         2.210871        -0.367574
 H        -0.277457         0.704791         0.915130
 H        -0.658488        -0.380187        -0.423108
 H        -0.133051        -0.990749         1.187541
 H         2.455799        -2.157854        -0.398505
 H         2.068929        -1.073312        -1.768821
 H         4.171226         0.339588        -1.329145
 H         4.069140        -1.012358         1.439669
 H         4.640578         0.787946         1.196897
 H         0.906693         0.580305         2.517313
 H         2.073108         3.005574        -0.068355
