19
Iteration:  2212
 C        -0.089863        -0.239053         0.443362
 C         1.441827        -0.228905         0.238930
 C         2.329275        -1.044155        -0.689868
 C         3.391294         0.060297        -0.572299
 C         3.848764         0.059083         0.992890
 C         2.412306         0.453430         1.256441
 O         1.799463         0.739988         2.574136
 C         2.181487         1.034888        -0.057278
 O         1.746129         2.261569        -0.510998
 H        -0.387648         0.525619         1.151258
 H        -0.564440        -0.087234        -0.527914
 H        -0.390343        -1.264344         0.850621
 H         2.553353        -2.087601        -0.425377
 H         1.947087        -0.989495        -1.702999
 H         4.079854         0.266750        -1.379798
 H         4.022010        -0.914282         1.394974
 H         4.773015         0.735755         1.244247
 H         2.169453         1.600789         2.789356
 H         1.084282         2.009605        -1.180559
