19
Iteration:  4213
 C        -0.187832        -0.200062         0.261083
 C         1.326900        -0.052079         0.046997
 C         2.124584        -0.389065        -1.214366
 C         3.298741         0.518835        -0.584604
 C         3.766453        -0.336783         0.583731
 C         2.438412        -0.038969         1.162152
 O         2.023287        -0.191142         2.516348
 C         2.228547         1.269106         0.289006
 O         1.889723         2.688392         0.357139
 H        -0.783570         0.633101        -0.086647
 H        -0.539860        -1.193514        -0.021101
 H        -0.375042        -0.086950         1.373231
 H         2.214109        -1.513851        -1.373482
 H         1.702122         0.102638        -2.127320
 H         4.163739         1.063649        -1.087048
 H         4.079927        -1.350559         0.594083
 H         4.605169         0.179496         1.163018
 H         2.123632        -1.151722         2.615751
 H         2.452106         3.070203         1.028885
