19
Iteration:  2307charge 0 multiplicity 1
 C        -0.187611        -0.661750         0.412166
 C         1.335893        -0.212574         0.265467
 C         2.238275        -1.091472        -0.637898
 C         3.310339         0.052967        -0.540282
 C         3.813078         0.116309         0.935054
 C         2.375218         0.508642         1.253473
 O         1.895989         0.903316         2.527969
 C         2.249708         1.059117        -0.122135
 O         1.993614         2.407960        -0.376121
 H        -0.503760        -0.738416         1.449232
 H        -0.844070        -0.093861        -0.280110
 H        -0.092756        -1.647511         0.058674
 H         2.453350        -2.173777        -0.432510
 H         1.904952        -0.927573        -1.679239
 H         3.890063         0.176796        -1.458732
 H         4.102998        -0.863764         1.588827
 H         4.509901         0.876379         1.026313
 H         1.098347         1.473777         2.379368
 H         1.837366         2.662174        -1.294036
