19
Iteration:  3255charge 0 multiplicity 1
 C        -0.121554        -0.515348         0.337167
 C         1.326905        -0.065425         0.222469
 C         2.121102        -0.672289        -0.919985
 C         3.278058         0.322115        -0.616549
 C         3.784164        -0.194914         0.795290
 C         2.384630         0.288178         1.284764
 O         2.132421         0.372674         2.678259
 C         2.157899         1.213736         0.068702
 O         1.980638         2.522430        -0.224216
 H        -0.435221        -0.627145        -0.631798
 H        -0.379099        -1.343275         1.059537
 H        -0.826497         0.202133         0.739740
 H         2.287598        -1.736041        -0.720401
 H         1.504761        -0.830987        -1.837576
 H         4.076658         0.606729        -1.308273
 H         3.798337        -1.276327         1.010034
 H         4.534007         0.629915         1.349516
 H         1.244621         0.023664         2.633359
 H         1.431504         2.494579        -1.038403
