19
Iteration:  1414charge 0 multiplicity 1
 C        -0.024084        -0.410692         0.525777
 C         1.404136        -0.194759         0.185258
 C         2.365312        -0.957425        -0.707844
 C         3.437338         0.189850        -0.485246
 C         3.854319         0.000724         1.046163
 C         2.349115         0.377576         1.253395
 O         1.542967         0.638093         2.385307
 C         2.230262         1.088934        -0.112012
 O         1.868700         2.357090        -0.536950
 H        -0.477494         0.440935         1.040860
 H        -0.571446        -0.655296        -0.361603
 H        -0.131867        -1.199710         1.268813
 H         2.811439        -1.901394        -0.355528
 H         1.992891        -0.925673        -1.732957
 H         4.208563         0.343755        -1.190952
 H         4.023845        -1.028314         1.218964
 H         4.581292         0.659768         1.444897
 H         2.066461         1.239689         2.927072
 H         1.701596         2.939383         0.251634
