19
Iteration:   121charge 0 multiplicity 1
 C        -0.089865        -0.211815         0.331879
 C         1.426702        -0.178939         0.140886
 C         2.358869        -0.962256        -0.821345
 C         3.454147         0.063213        -0.425490
 C         3.773820        -0.134912         1.033082
 C         2.324022         0.377914         1.315229
 O         1.648730         0.811057         2.451083
 C         2.325031         1.045264         0.067810
 O         1.824513         2.303466        -0.416310
 H        -0.356489         0.496458         1.087762
 H        -0.615081         0.090462        -0.536910
 H        -0.345262        -1.148066         0.747426
 H         2.443929        -2.111957        -0.786903
 H         2.139498        -0.568925        -1.804184
 H         4.077929         0.358537        -1.212306
 H         3.851623        -1.137166         1.294372
 H         4.498886         0.547169         1.370339
 H         1.465827         0.136139         3.179383
 H         2.587406         2.496992        -1.030883
