19
Iteration:  4176
 C        -0.077760        -0.200888         0.422734
 C         1.363009         0.043149        -0.063085
 C         2.104057        -0.281196        -1.312886
 C         3.354560         0.454219        -0.574021
 C         3.764469        -0.380492         0.622236
 C         2.482216         0.092297         1.238816
 O         1.912149        -0.176415         2.547281
 C         2.250284         1.243573         0.219102
 O         1.789479         2.518873         0.303580
 H        -0.447163         0.691599         1.039635
 H        -0.853190        -0.293822        -0.390624
 H        -0.026056        -1.106892         1.022331
 H         2.325488        -1.315875        -1.575309
 H         1.792083         0.248965        -2.216234
 H         4.230879         1.008643        -0.928020
 H         3.794056        -1.491091         0.407287
 H         4.665504         0.053189         1.195413
 H         2.181867        -1.022010         2.985760
 H         2.414384         3.057514         0.792258
