19
Iteration:   591charge 0 multiplicity 1
 C        -0.117777        -0.199505         0.051074
 C         1.402464        -0.244293         0.093757
 C         2.405175        -0.906573        -0.822070
 C         3.353548         0.152769        -0.418247
 C         3.662068        -0.079847         1.089899
 C         2.324158         0.352540         1.383919
 O         1.891236         0.691954         2.707531
 C         2.240744         1.035232         0.095065
 O         1.791791         2.202354        -0.494717
 H        -0.470013         0.849450         0.174251
 H        -0.440601        -0.440464        -0.973302
 H        -0.608843        -0.940140         0.672172
 H         2.823154        -1.881903        -0.601575
 H         2.054526        -0.894506        -1.846742
 H         4.133240         0.534627        -1.132202
 H         3.929348        -1.121712         1.418904
 H         4.358933         0.667540         1.483664
 H         1.729118         1.682633         2.705339
 H         2.512202         2.866826        -0.408820
