19
Iteration:  2552charge 0 multiplicity 1
 C        -0.057080        -0.600201         0.505925
 C         1.376345        -0.211228         0.150066
 C         2.270659        -0.921689        -0.851748
 C         3.335490         0.146417        -0.517960
 C         3.720702        -0.119404         0.931074
 C         2.327647         0.468801         1.263424
 O         1.766937         0.694544         2.613335
 C         2.263654         1.124333        -0.063228
 O         1.971100         2.509292        -0.359763
 H         0.063751        -1.182022         1.463914
 H        -0.692884         0.316921         0.620008
 H        -0.408568        -1.187626        -0.415413
 H         2.689967        -1.963452        -0.899442
 H         1.917374        -0.739032        -1.905203
 H         4.138659         0.388212        -1.273828
 H         3.824895        -1.203201         1.179261
 H         4.499776         0.438351         1.297909
 H         1.717772         1.669092         2.770483
 H         1.789905         2.532624        -1.327529
