19
Iteration:  3570
 C        -0.143801        -0.308267         0.238739
 C         1.305847        -0.092523         0.082338
 C         2.179659        -0.807852        -1.040842
 C         3.332238         0.292091        -0.645424
 C         3.822193        -0.100219         0.757535
 C         2.337130         0.133518         1.218450
 O         2.012242         0.433733         2.597179
 C         2.228859         1.157824         0.025284
 O         1.876400         2.494223         0.250456
 H        -0.815688         0.466390        -0.145456
 H        -0.455947        -1.122392        -0.375764
 H        -0.204775        -0.639360         1.328410
 H         2.364613        -1.864867        -0.825125
 H         1.945893        -0.702338        -2.104623
 H         4.100661         0.724807        -1.278571
 H         4.325455        -1.154240         0.826505
 H         4.463554         0.613258         1.247349
 H         2.188311        -0.329784         3.205277
 H         1.326776         2.839557        -0.485502
