19
Iteration:  3455charge 0 multiplicity 1
 C         0.046606        -0.356648         0.561526
 C         1.392212        -0.092599         0.017939
 C         2.211562        -0.752347        -1.026824
 C         3.267921         0.323494        -0.622785
 C         3.754254        -0.171023         0.846832
 C         2.407716         0.312458         1.202480
 O         1.830996         0.294026         2.538598
 C         2.267886         1.168517         0.102628
 O         1.912593         2.498310        -0.108610
 H        -0.084970        -1.238253         1.268327
 H        -0.211009         0.391480         1.374404
 H        -0.680931        -0.315362        -0.205153
 H         2.628422        -1.762700        -0.833567
 H         1.880253        -0.584224        -2.074529
 H         4.003914         0.831601        -1.255211
 H         4.086754        -1.187130         0.978120
 H         4.528880         0.593566         1.296940
 H         1.000647        -0.256581         2.491050
 H         0.980966         2.637212        -0.329651
