19
Iteration:  2511
 C         0.002613        -0.564570         0.688431
 C         1.378431        -0.125043         0.098695
 C         2.326406        -0.942027        -0.891506
 C         3.395894         0.158938        -0.541272
 C         3.707760        -0.085524         0.973273
 C         2.287680         0.381269         1.233971
 O         1.597714         0.707644         2.421230
 C         2.308234         1.133950        -0.092721
 O         1.999045         2.441639        -0.306173
 H        -0.068859        -1.615366         0.614966
 H         0.014813        -0.261628         1.750635
 H        -1.010671        -0.238781         0.301288
 H         2.402580        -1.983887        -0.526182
 H         2.155541        -0.832973        -1.970625
 H         4.178140         0.124371        -1.282886
 H         4.189178        -1.043547         1.149314
 H         4.584390         0.668838         1.405325
 H         1.873587         1.598623         2.719984
 H         1.443534         2.686469        -1.064473
