19
Iteration:  3928charge 0 multiplicity 1
 C        -0.204816        -0.128501         0.226267
 C         1.316495        -0.025300        -0.033362
 C         2.216470        -0.556186        -1.137995
 C         3.267280         0.417283        -0.693250
 C         3.817401        -0.354176         0.681445
 C         2.527329         0.167951         1.287422
 O         2.110812         0.116739         2.536174
 C         2.229936         1.193653         0.196468
 O         1.742551         2.423932         0.393646
 H        -0.661766         0.116167         1.218994
 H        -0.663241         0.481952        -0.570905
 H        -0.514999        -1.119863        -0.172560
 H         2.460170        -1.597065        -0.981219
 H         1.618593        -0.425517        -2.045880
 H         3.974193         0.943631        -1.342162
 H         4.086757        -1.404554         0.512952
 H         4.677659         0.220097         1.117726
 H         1.265340        -0.358940         2.594336
 H         2.269560         2.877753         1.056518
