19
Iteration:   250charge 0 multiplicity 1
 C        -0.021264        -0.444476         0.478425
 C         1.363425        -0.153050         0.035983
 C         2.372442        -0.937515        -0.822147
 C         3.416028         0.042267        -0.437699
 C         3.585386        -0.252149         1.075650
 C         2.240791         0.308980         1.189274
 O         1.792132         0.957794         2.327360
 C         2.223035         1.110802        -0.124575
 O         2.015492         2.452940        -0.147812
 H        -0.312089         0.470836         1.065665
 H        -0.823323        -0.590894        -0.320033
 H        -0.074641        -1.351854         1.170407
 H         2.615369        -1.947750        -0.467390
 H         2.068490        -1.079617        -1.803996
 H         4.225348         0.401915        -0.963184
 H         3.954848        -1.300902         1.444519
 H         4.351797         0.448848         1.379087
 H         0.912641         0.639053         2.526486
 H         2.203698         2.624304        -1.076586
