19
Iteration:  4229
 C        -0.173831        -0.172812         0.221052
 C         1.319933         0.066251         0.023344
 C         2.075938        -0.352930        -1.165773
 C         3.250363         0.449104        -0.676141
 C         3.909649        -0.285679         0.578832
 C         2.428770         0.056154         1.242125
 O         2.027418        -0.169156         2.532583
 C         2.172511         1.194575         0.297017
 O         1.929991         2.539416         0.430225
 H        -0.638176         0.158269        -0.743143
 H        -0.372602        -1.266323         0.201784
 H        -0.680479         0.265612         1.072622
 H         2.411518        -1.369699        -1.367121
 H         1.665046         0.111327        -2.060682
 H         3.774054         0.964327        -1.447878
 H         4.219048        -1.326634         0.242321
 H         4.676283         0.203038         1.174033
 H         1.615839        -1.057965         2.694131
 H         2.415654         2.897568         1.176010
