19
Iteration:  3593charge 0 multiplicity 1
 C        -0.096186        -0.346931         0.439187
 C         1.402435        -0.189488         0.105445
 C         2.253721        -0.639234        -1.110237
 C         3.325220         0.231474        -0.678477
 C         3.778563        -0.165754         0.760550
 C         2.436269         0.252568         1.211977
 O         1.884392         0.387592         2.472624
 C         2.134483         1.165129         0.123680
 O         1.922384         2.504767         0.214533
 H        -0.730912         0.109724        -0.288991
 H        -0.446198        -1.387500         0.411255
 H        -0.169252        -0.013914         1.496668
 H         2.473081        -1.699481        -1.055870
 H         1.926316        -0.404109        -2.118216
 H         4.029429         0.631160        -1.371235
 H         4.077842        -1.227641         1.034679
 H         4.577346         0.515674         1.142320
 H         1.316811        -0.365174         2.674112
 H         1.429763         2.841810        -0.559339
