19
Iteration:   727
 C        -0.095521        -0.733623         0.192253
 C         1.362140        -0.210807         0.071825
 C         2.340247        -1.075800        -0.754425
 C         3.363173         0.037958        -0.482542
 C         3.700111        -0.161859         1.032798
 C         2.266765         0.414431         1.281666
 O         1.819374         1.170486         2.360402
 C         2.246860         1.113343        -0.049090
 O         1.996306         2.542652        -0.157069
 H        -0.773024        -0.531437         1.042159
 H        -0.706072        -0.530923        -0.723248
 H         0.119071        -1.844463         0.125203
 H         2.448679        -2.072576        -0.230416
 H         1.903088        -1.157566        -1.718729
 H         4.118259         0.218039        -1.274108
 H         3.966705        -1.197519         1.260914
 H         4.449312         0.515842         1.523580
 H         1.357916         0.615768         3.053052
 H         2.063454         2.968764         0.739543
