19
Iteration:  2149
 C        -0.039063        -0.472280         0.574070
 C         1.351325        -0.119744         0.278687
 C         2.233065        -0.933026        -0.661805
 C         3.398504         0.015566        -0.554509
 C         3.832882         0.052335         0.988159
 C         2.414896         0.509828         1.273694
 O         1.761581         0.613741         2.558168
 C         2.172164         1.102602        -0.141542
 O         1.883814         2.423223        -0.630367
 H        -0.821265         0.280723         0.584463
 H        -0.380461        -1.175704        -0.193869
 H        -0.223743        -1.022116         1.562760
 H         2.377525        -1.993075        -0.358382
 H         1.813423        -1.040714        -1.694944
 H         4.174366         0.313508        -1.189319
 H         3.925939        -0.980633         1.314297
 H         4.695240         0.757102         1.146399
 H         2.452836         1.161880         2.958590
 H         1.491669         2.221242        -1.490692
