19
Iteration:  1904charge 0 multiplicity 1
 C        -0.132060        -0.501396         0.216952
 C         1.319496        -0.177353         0.379679
 C         2.272686        -1.047187        -0.656762
 C         3.364031         0.084409        -0.564100
 C         3.769513         0.020442         0.850206
 C         2.381837         0.382999         1.356450
 O         2.001662         0.885899         2.567928
 C         2.210277         1.062394        -0.063836
 O         1.814648         2.375614        -0.428031
 H        -0.993701         0.180356         0.089505
 H        -0.335709        -1.179964        -0.560539
 H        -0.349096        -1.105157         1.099116
 H         2.641648        -1.980196        -0.221875
 H         1.819069        -1.121782        -1.635550
 H         4.072989         0.024291        -1.468740
 H         4.203214        -0.924297         1.120315
 H         4.528874         0.841515         1.319156
 H         2.497683         1.719132         2.757331
 H         0.828532         2.447833        -0.388110
