19
Iteration:  2127
 C         0.020513        -0.432033         0.646528
 C         1.415614        -0.227528         0.198068
 C         2.301535        -1.040914        -0.739848
 C         3.334695         0.173932        -0.518664
 C         3.787740        -0.125498         0.947272
 C         2.388514         0.433503         1.238051
 O         1.689539         0.815703         2.409282
 C         2.259407         1.123276        -0.072057
 O         1.840030         2.365078        -0.450731
 H        -0.568268         0.477387         0.712353
 H        -0.565126        -1.129739         0.046396
 H         0.018352        -0.821238         1.719520
 H         2.520965        -2.104770        -0.538037
 H         1.868162        -1.038514        -1.768979
 H         4.149480         0.370336        -1.155658
 H         4.186237        -1.072468         1.327061
 H         4.436840         0.755061         1.037556
 H         2.210304         1.584498         2.753480
 H         1.368295         2.204266        -1.298476
