19
Iteration:  3105
 C        -0.068808        -0.374473         0.395362
 C         1.384369        -0.096429         0.135930
 C         2.254927        -0.746846        -0.911021
 C         3.347866         0.211882        -0.627882
 C         3.706305        -0.088703         0.848005
 C         2.386724         0.313857         1.309324
 O         1.996790         0.327396         2.676678
 C         2.097200         1.189421         0.097330
 O         1.772231         2.438749        -0.329889
 H        -0.692355         0.281247         1.113272
 H        -0.727689        -0.308120        -0.548754
 H        -0.265665        -1.369542         0.772251
 H         2.583263        -1.833071        -0.810873
 H         1.794825        -0.482801        -1.889554
 H         4.070466         0.652086        -1.294510
 H         3.985783        -1.161842         0.968915
 H         4.461355         0.375177         1.347480
 H         2.717594         0.875152         3.003313
 H         2.656466         2.772840        -0.599316
