19
Iteration:  3581
 C        -0.132745        -0.363469         0.357913
 C         1.361221        -0.125086         0.007070
 C         2.231515        -0.773819        -1.059861
 C         3.395329         0.284146        -0.704077
 C         3.757794        -0.120759         0.740562
 C         2.338965         0.183927         1.233188
 O         1.952105         0.429001         2.560743
 C         2.217038         1.169678         0.121507
 O         1.904095         2.510577         0.247220
 H        -0.688051         0.495232        -0.052405
 H        -0.450425        -1.325821         0.020547
 H        -0.523798        -0.205417         1.429152
 H         2.559987        -1.810525        -1.091693
 H         1.635981        -0.519050        -1.939675
 H         4.150108         0.436850        -1.464573
 H         4.313238        -1.138013         0.889751
 H         4.347482         0.703465         1.120010
 H         1.766350        -0.460180         2.922396
 H         1.368014         2.707766        -0.528912
