19
Iteration:    71
 C        -0.121690        -0.773822         0.420219
 C         1.243890        -0.200236        -0.035810
 C         2.311963        -0.940696        -0.801041
 C         3.400748         0.069698        -0.487803
 C         3.629716        -0.130975         1.083334
 C         2.182626         0.454119         1.179977
 O         1.793645         0.944255         2.424800
 C         2.245003         1.146292        -0.111504
 O         2.290025         2.551684        -0.155425
 H        -0.613875         0.187452         0.768203
 H        -0.835094        -1.170052        -0.361101
 H        -0.008811        -1.455119         1.330775
 H         2.446297        -1.847687        -0.294791
 H         2.021022        -1.115318        -1.872556
 H         4.372354         0.074185        -1.058309
 H         3.890006        -1.243978         1.246950
 H         4.289662         0.658886         1.566915
 H         0.979506         0.654113         2.775982
 H         1.626189         2.820496        -0.814871
