19
Iteration:  3652charge 0 multiplicity 1
 C        -0.086410        -0.396909         0.349974
 C         1.345612        -0.074209         0.081808
 C         2.145012        -0.636206        -1.134104
 C         3.380883         0.361013        -0.623527
 C         3.763001        -0.271182         0.840273
 C         2.430467         0.271051         1.265777
 O         2.008435         0.211018         2.597043
 C         2.143653         1.221114         0.122719
 O         1.926000         2.595565         0.046435
 H        -0.373419        -1.396763         0.100045
 H        -0.111191        -0.257036         1.450112
 H        -0.835242         0.131335        -0.131686
 H         2.083251        -1.731307        -1.177959
 H         1.710653        -0.274200        -2.087303
 H         4.110661         0.930524        -1.288631
 H         3.798803        -1.333531         0.868516
 H         4.489804         0.180994         1.597529
 H         1.664492        -0.696239         2.732382
 H         1.258090         2.819449        -0.609561
