19
Iteration:  2975charge 0 multiplicity 1
 C        -0.179955        -0.528240         0.198163
 C         1.333165        -0.195178         0.140124
 C         2.246385        -0.912028        -0.906825
 C         3.328184         0.163260        -0.580176
 C         3.855362        -0.114234         0.815208
 C         2.391280         0.270585         1.329659
 O         1.961327         0.809253         2.526102
 C         2.128635         1.072801        -0.021936
 O         1.907774         2.469448         0.023657
 H        -0.260864        -1.577408        -0.195322
 H        -0.373588        -0.670956         1.257902
 H        -0.850398         0.185347        -0.255398
 H         2.383427        -1.985592        -1.003857
 H         1.703480        -0.804665        -1.840856
 H         4.009066         0.470027        -1.356640
 H         4.173380        -1.214200         1.033401
 H         4.557753         0.795292         0.932478
 H         2.458575         1.630824         2.775539
 H         1.260455         2.602683         0.744255
