19
Iteration:  3512charge 0 multiplicity 1
 C        -0.064709        -0.210161         0.173260
 C         1.411914        -0.114808         0.085360
 C         2.139610        -0.696712        -1.018408
 C         3.296391         0.269492        -0.628731
 C         3.760711        -0.200786         0.810168
 C         2.392587         0.193846         1.348734
 O         2.072200         0.426508         2.632059
 C         2.153986         1.129101         0.113623
 O         1.755456         2.419868         0.051978
 H        -0.290948        -0.147924         1.279960
 H        -0.635137         0.371386        -0.515566
 H        -0.354090        -1.250790        -0.022579
 H         2.444983        -1.752056        -1.100294
 H         1.860834        -0.329862        -2.013504
 H         4.207501         0.644658        -1.151719
 H         4.033692        -1.317092         0.957621
 H         4.496354         0.401231         1.309967
 H         2.720157        -0.070092         3.140091
 H         1.385548         2.439729        -0.848946
