19
Iteration:   288
 C        -0.045948        -0.656348         0.409441
 C         1.324643        -0.147348         0.181065
 C         2.222816        -0.891652        -0.732733
 C         3.308678         0.019964        -0.503930
 C         3.756563        -0.179691         0.990614
 C         2.324989         0.432189         1.223279
 O         1.554036         0.969902         2.292943
 C         2.212448         1.075863        -0.061833
 O         2.342116         2.476809        -0.171761
 H        -0.725924         0.186156         0.411659
 H        -0.291525        -1.200171        -0.474619
 H        -0.220232        -1.310504         1.232856
 H         2.286017        -1.981449        -0.609179
 H         1.757145        -0.709230        -1.794674
 H         4.205459         0.240042        -1.247021
 H         4.095639        -1.051053         1.544385
 H         4.484067         0.698550         1.131573
 H         1.416820         0.179967         2.932001
 H         1.610906         2.951308        -0.568143
