19
Iteration:  3556charge 0 multiplicity 1
 C        -0.167041        -0.308353         0.119777
 C         1.321359        -0.113926         0.046241
 C         2.226247        -0.738174        -0.935328
 C         3.261282         0.300468        -0.593869
 C         3.813421        -0.169416         0.800980
 C         2.444971         0.207225         1.248827
 O         2.085758         0.429233         2.542153
 C         2.081831         1.128042         0.109480
 O         1.872628         2.460337         0.218774
 H        -0.678870         0.724419         0.203078
 H        -0.464519        -0.876126        -0.789229
 H        -0.651087        -0.854497         0.982959
 H         2.538884        -1.788685        -0.680562
 H         1.772291        -0.708743        -1.957395
 H         3.824597         0.666785        -1.497796
 H         4.195466        -1.255913         0.945011
 H         4.533828         0.531616         1.153601
 H         2.658208        -0.167861         3.028222
 H         1.356929         2.796460        -0.525952
