19
Iteration:  4731
 C        -0.084543        -0.296892         0.244059
 C         1.269332         0.100980        -0.051100
 C         2.083416        -0.015586        -1.318925
 C         3.294091         0.649678        -0.632557
 C         3.724699        -0.440862         0.416298
 C         2.371200        -0.055225         1.051486
 O         1.883021        -0.296540         2.374948
 C         2.264464         1.234714         0.379648
 O         2.097376         2.505897         0.927162
 H        -0.585359        -0.663494        -0.655512
 H        -0.050238        -1.040177         1.062764
 H        -0.802765         0.460107         0.604869
 H         2.530517        -1.021749        -1.516148
 H         1.788009         0.607373        -2.120572
 H         3.926736         1.189727        -1.305514
 H         3.820458        -1.459884        -0.102011
 H         4.514696        -0.177043         1.064356
 H         1.335864        -1.074787         2.338797
 H         2.966329         2.666417         1.327549
