19
Iteration:   168
 C        -0.110776         0.047650         0.067894
 C         1.399497        -0.143729         0.200616
 C         2.377728        -1.038500        -0.673776
 C         3.375503         0.094664        -0.382529
 C         3.720425        -0.061633         1.031176
 C         2.355373         0.411696         1.348721
 O         1.928097         0.578308         2.732219
 C         2.219213         1.113175         0.026285
 O         1.754969         2.194437        -0.668735
 H        -0.669217         0.622315         0.814083
 H        -0.203474         0.561664        -0.888234
 H        -0.472165        -0.975416         0.005690
 H         2.777733        -1.991287        -0.287453
 H         2.062408        -1.062178        -1.809048
 H         4.323928         0.111412        -1.041433
 H         4.006395        -1.044781         1.285367
 H         4.454854         0.743986         1.262291
 H         1.675571        -0.313006         2.931583
 H         1.270990         2.869509        -0.138507
