19
Iteration:   327charge 0 multiplicity 1
 C        -0.158737        -0.461316         0.304978
 C         1.298141        -0.187522        -0.034597
 C         2.370081        -0.959520        -0.816341
 C         3.390967         0.091980        -0.425413
 C         3.651305        -0.124145         1.098675
 C         2.258661         0.479517         1.297839
 O         1.783006         0.819664         2.588151
 C         2.110547         1.090646        -0.031903
 O         2.227988         2.391550        -0.440780
 H        -0.821356         0.454800         0.316757
 H        -0.662834        -1.115918        -0.476687
 H        -0.318655        -0.825089         1.361316
 H         2.725760        -1.956812        -0.443553
 H         2.341890        -0.863666        -1.889977
 H         4.082885         0.223492        -1.213826
 H         3.966973        -1.160396         1.446650
 H         4.310157         0.667773         1.377298
 H         1.958211         0.122497         3.239998
 H         1.395749         2.898353        -0.232311
