19
Iteration:  2386charge 0 multiplicity 1
 C        -0.008459        -0.258000         0.482240
 C         1.444016        -0.181137         0.188988
 C         2.317993        -0.961083        -0.822164
 C         3.392018         0.059295        -0.492856
 C         3.843160        -0.105367         1.088921
 C         2.403001         0.455273         1.281592
 O         1.844374         0.780374         2.553476
 C         2.243833         1.102155        -0.023111
 O         1.699012         2.277933        -0.539642
 H        -0.535125         0.655386         0.679227
 H        -0.459890        -0.755177        -0.361306
 H        -0.094222        -1.022245         1.308639
 H         2.422443        -2.072140        -0.650094
 H         1.847068        -0.984504        -1.810814
 H         4.187719         0.310937        -1.187788
 H         4.077633        -1.255664         1.269017
 H         4.492550         0.706981         1.347176
 H         0.942586         1.182451         2.455520
 H         1.005327         1.943404        -1.142643
