19
Iteration:  4617charge 0 multiplicity 1
 C        -0.164677        -0.018764         0.129971
 C         1.292447         0.121478         0.030445
 C         2.065367        -0.171828        -1.293884
 C         3.282290         0.558803        -0.633407
 C         3.725547        -0.382872         0.505233
 C         2.427369        -0.104040         1.170874
 O         2.202673        -0.472905         2.431066
 C         2.256125         1.227836         0.410287
 O         1.847328         2.517498         0.733989
 H        -0.472462         0.415451         1.089313
 H        -0.506388         0.662138        -0.696304
 H        -0.565103        -1.017078        -0.120088
 H         2.207636        -1.039549        -2.001150
 H         1.651493         0.649354        -1.869369
 H         3.899794         1.175222        -1.300172
 H         3.937687        -1.441579         0.463339
 H         4.558773         0.093999         1.132044
 H         1.388030        -1.007073         2.419473
 H         2.695045         2.969810         1.009042
