19
Iteration:  2803charge 0 multiplicity 1
 C        -0.056194        -0.239908         0.253315
 C         1.429898        -0.160725         0.158827
 C         2.328926        -0.937337        -0.864697
 C         3.406392         0.139223        -0.626810
 C         3.838002        -0.179868         0.830857
 C         2.420292         0.378255         1.336322
 O         1.806998         0.679293         2.574508
 C         2.235662         1.094568        -0.008636
 O         1.607371         2.290414        -0.143021
 H        -0.214818        -0.394623         1.362868
 H        -0.502609         0.680556        -0.025820
 H        -0.608712        -1.082461        -0.287826
 H         2.654696        -1.968063        -0.643428
 H         1.804328        -1.050706        -1.839283
 H         4.113762         0.366938        -1.426188
 H         4.252202        -1.235758         0.994037
 H         4.623135         0.463081         1.297508
 H         2.179001         1.483744         2.964448
 H         2.021313         3.054821         0.321828
