19
Iteration:   417
 C        -0.107754        -0.065688         0.154006
 C         1.417156        -0.309058         0.104385
 C         2.459121        -1.033595        -0.744412
 C         3.479201         0.045412        -0.358003
 C         3.683294        -0.044130         1.083084
 C         2.231562         0.379504         1.291293
 O         1.864751         0.657098         2.596696
 C         2.257941         1.111155         0.014203
 O         1.755159         2.306619        -0.435711
 H        -0.199438         0.633644         1.048982
 H        -0.466756         0.478020        -0.750468
 H        -0.741894        -0.927216         0.486486
 H         2.641172        -2.136327        -0.560040
 H         2.177495        -0.933786        -1.763983
 H         4.359439         0.155312        -1.082858
 H         4.104696        -0.919650         1.594725
 H         4.321929         0.832419         1.354298
 H         0.950138         0.906485         2.476075
 H         2.087048         2.450119        -1.336770
