19
Iteration:  4881charge 0 multiplicity 1
 C        -0.164008         0.151365         0.224324
 C         1.350466         0.047468         0.008251
 C         2.078969        -0.042735        -1.352741
 C         3.297784         0.718612        -0.622399
 C         3.726699        -0.382009         0.417141
 C         2.464582        -0.151053         1.132481
 O         2.145251        -0.598335         2.348218
 C         2.203678         1.184343         0.471743
 O         1.871877         2.411740         0.888877
 H        -0.309122         1.026327         0.829384
 H        -0.719207         0.259712        -0.733740
 H        -0.618330        -0.697794         0.764183
 H         2.458207        -0.931550        -1.791697
 H         1.476064         0.365848        -2.238219
 H         3.970323         1.373276        -1.151892
 H         3.938868        -1.381591         0.048788
 H         4.578474        -0.205499         1.067023
 H         1.672271        -1.424949         2.245082
 H         1.990515         3.226891         0.428886
