19
Iteration:  4313charge 0 multiplicity 1
 C        -0.025463        -0.189913         0.258016
 C         1.375141         0.001503        -0.039100
 C         2.096677        -0.305869        -1.319296
 C         3.336685         0.426835        -0.696199
 C         3.701683        -0.349548         0.527598
 C         2.456079        -0.042756         1.174727
 O         2.041785        -0.061464         2.515548
 C         2.170777         1.202497         0.299429
 O         1.843218         2.492187         0.679470
 H        -0.342755        -1.162557         0.592522
 H        -0.437784         0.559906         0.968211
 H        -0.556310         0.021225        -0.727524
 H         2.046371        -1.341068        -1.749198
 H         1.589020         0.330842        -2.114499
 H         4.136117         0.867804        -1.226850
 H         4.058226        -1.359830         0.270269
 H         4.596641         0.146695         0.964293
 H         1.185571         0.348901         2.609086
 H         2.432198         2.733020         1.426764
