19
Iteration:  4873
 C        -0.138128         0.193178         0.308898
 C         1.321700         0.013925         0.016195
 C         2.124449        -0.064238        -1.346384
 C         3.297729         0.694043        -0.673811
 C         3.800848        -0.440558         0.453198
 C         2.431822        -0.128407         1.081931
 O         2.125510        -0.575937         2.345011
 C         2.235413         1.162373         0.354176
 O         1.782595         2.435784         0.946417
 H        -0.367913         0.986813         1.035828
 H        -0.453480         0.516363        -0.714385
 H        -0.731042        -0.699186         0.562271
 H         2.528796        -0.961371        -1.818119
 H         1.594506         0.661192        -1.944229
 H         3.938890         1.399994        -1.134747
 H         4.021856        -1.396745        -0.113489
 H         4.559495        -0.251692         1.162633
 H         1.707827        -1.415238         2.219054
 H         1.991451         3.173443         0.358637
