19
Iteration:   761
 C        -0.091010        -0.619732         0.187026
 C         1.328942        -0.280360         0.111616
 C         2.387870        -0.885877        -0.889648
 C         3.433078         0.087663        -0.393773
 C         3.588102        -0.188522         1.107771
 C         2.199352         0.294096         1.320217
 O         1.892811         1.204096         2.412050
 C         2.247351         1.026157        -0.011924
 O         1.881473         2.374288        -0.281168
 H        -0.768745         0.118397         0.680515
 H        -0.417621        -0.954752        -0.822763
 H        -0.149306        -1.585993         0.792695
 H         2.710679        -2.011357        -1.011229
 H         2.009792        -0.613869        -1.901494
 H         4.385872         0.394872        -0.972244
 H         3.855013        -1.241937         1.229733
 H         4.240600         0.517754         1.667388
 H         2.607348         1.057353         3.108818
 H         2.204376         2.849261         0.522608
