19
Iteration:  1666charge 0 multiplicity 1
 C        -0.002268        -0.346124         0.522394
 C         1.470894        -0.184135         0.221859
 C         2.376280        -1.058575        -0.659957
 C         3.397878         0.068944        -0.610563
 C         3.841516         0.022518         1.016794
 C         2.375417         0.355111         1.229539
 O         1.737609         0.835395         2.432470
 C         2.219600         1.066129        -0.177469
 O         1.669931         2.381817        -0.356905
 H        -0.540367         0.637207         0.682519
 H        -0.392640        -0.907486        -0.315886
 H        -0.183523        -0.832985         1.509930
 H         2.598698        -2.081441        -0.287437
 H         1.889940        -1.192571        -1.657575
 H         4.279517         0.203521        -1.362678
 H         4.078712        -1.110505         1.378920
 H         4.615999         0.690745         1.266571
 H         1.149426         0.081982         2.726913
 H         2.025267         2.930119        -1.095569
