19
Iteration:   117charge 0 multiplicity 1
 C        -0.073631        -0.263928         0.332218
 C         1.441837        -0.199705         0.135843
 C         2.302946        -0.949040        -0.817642
 C         3.454190         0.074711        -0.441858
 C         3.803394        -0.159146         1.035289
 C         2.361401         0.373121         1.310028
 O         1.595470         0.851881         2.443362
 C         2.313137         1.041878         0.074967
 O         1.858882         2.341543        -0.395374
 H        -0.288961         0.499227         1.120852
 H        -0.714160        -0.034925        -0.573319
 H        -0.310383        -1.258867         0.852406
 H         2.465225        -2.021247        -0.788483
 H         2.017483        -0.615716        -1.812180
 H         4.141225         0.321023        -1.294141
 H         3.820343        -1.275873         1.357064
 H         4.619217         0.548385         1.344823
 H         1.397035         0.165987         3.083113
 H         2.537069         2.539399        -1.034450
