19
Iteration:  3237charge 0 multiplicity 1
 C        -0.107502        -0.470288         0.392408
 C         1.379785        -0.087496         0.137915
 C         2.147090        -0.777205        -0.922831
 C         3.276633         0.235685        -0.621817
 C         3.738860        -0.212479         0.797363
 C         2.361722         0.320781         1.336944
 O         2.101291         0.443784         2.592043
 C         2.207771         1.196339         0.075656
 O         1.885228         2.535219        -0.123551
 H        -0.733878        -0.477382        -0.591055
 H        -0.000188        -1.535837         0.742336
 H        -0.677491         0.148498         1.106651
 H         2.416877        -1.859880        -0.920457
 H         2.008248        -0.433474        -1.963578
 H         3.905413         0.653085        -1.386074
 H         3.897623        -1.327363         0.845750
 H         4.497269         0.428004         1.080532
 H         1.191503         0.411522         2.877701
 H         1.868173         2.838571        -1.048799
