19
Iteration:  1210
 C        -0.096208        -0.615944         0.273301
 C         1.330264        -0.127647         0.048037
 C         2.452334        -0.930541        -0.772711
 C         3.407169         0.149377        -0.370887
 C         3.691399        -0.166631         1.079889
 C         2.321555         0.510997         1.339884
 O         1.782454         0.786735         2.574182
 C         2.184903         1.115912        -0.032739
 O         1.976189         2.377288        -0.550882
 H        -0.521110        -0.407685         1.267970
 H        -0.781518        -0.146931        -0.427594
 H        -0.112373        -1.658605         0.114578
 H         2.828317        -1.931088        -0.382522
 H         2.118458        -0.897299        -1.763354
 H         4.155692         0.478113        -1.005860
 H         3.766237        -1.176253         1.351874
 H         4.362973         0.369663         1.728795
 H         1.329614         1.616551         2.452039
 H         1.423823         2.877529         0.075125
