19
Iteration:  3694
 C        -0.165314        -0.224135         0.182151
 C         1.326525        -0.181599         0.066344
 C         2.174415        -0.676538        -1.060779
 C         3.334833         0.361779        -0.701276
 C         3.850945        -0.158563         0.698523
 C         2.382066         0.100895         1.271569
 O         1.998631         0.314150         2.662909
 C         2.181743         1.127943         0.172998
 O         1.905723         2.514628         0.229928
 H        -0.605821        -0.763297         1.032247
 H        -0.586389         0.855647         0.181015
 H        -0.499083        -0.748098        -0.730589
 H         2.518007        -1.696583        -1.018435
 H         1.665934        -0.500652        -2.019476
 H         3.970353         0.838152        -1.507963
 H         4.253056        -1.162711         0.632849
 H         4.685563         0.531116         1.186720
 H         2.291946        -0.479658         3.178486
 H         1.020751         2.635197        -0.181839
