19
Iteration:  1953
 C        -0.037304        -0.347995         0.679680
 C         1.384572        -0.159106         0.207809
 C         2.403913        -0.988222        -0.738707
 C         3.386736         0.188858        -0.571194
 C         3.810757        -0.047650         0.971782
 C         2.342296         0.390505         1.244997
 O         1.747601         0.686395         2.559200
 C         2.253641         1.122089        -0.097661
 O         1.791556         2.245349        -0.650156
 H        -0.183356         0.553926         1.291385
 H        -0.885010        -0.149484        -0.046053
 H        -0.366256        -1.125774         1.400117
 H         2.681110        -2.005663        -0.401862
 H         2.003581        -0.989125        -1.786168
 H         4.131953         0.579670        -1.168937
 H         4.219920        -1.101737         1.263566
 H         4.534581         0.647505         1.209019
 H         2.034368         1.575829         2.780469
 H         0.866111         2.169119        -0.888978
