19
Iteration:  1123
 C         0.042566        -0.209731         0.240194
 C         1.490743        -0.292055         0.162881
 C         2.484280        -1.117626        -0.685946
 C         3.413310         0.073052        -0.465683
 C         3.703472         0.051248         0.991494
 C         2.259040         0.371014         1.228218
 O         1.566964         0.703217         2.439248
 C         2.201009         1.080445        -0.080834
 O         1.806346         2.420677        -0.323356
 H        -0.145768         0.861440         0.442005
 H        -0.456602        -0.303214        -0.727097
 H        -0.428165        -0.828336         0.971083
 H         2.964712        -1.983911        -0.008974
 H         2.156778        -1.492838        -1.622063
 H         4.179063         0.230165        -1.177399
 H         4.063838        -0.888244         1.357309
 H         4.273698         0.887347         1.323804
 H         1.994503         0.228372         3.206537
 H         2.473975         2.802044         0.254862
