19
Iteration:   760charge 0 multiplicity 1
 C        -0.092861        -0.628023         0.189059
 C         1.332341        -0.280049         0.109846
 C         2.395657        -0.881819        -0.891816
 C         3.433595         0.090108        -0.389962
 C         3.583395        -0.190057         1.105130
 C         2.196058         0.305412         1.315299
 O         1.898681         1.206018         2.405318
 C         2.235765         1.025944        -0.013029
 O         1.888261         2.369924        -0.271866
 H        -0.774596         0.102072         0.679959
 H        -0.426891        -0.949443        -0.825281
 H        -0.152425        -1.614895         0.769396
 H         2.662341        -2.009523        -0.974505
 H         2.018743        -0.609590        -1.859767
 H         4.358948         0.388930        -0.982843
 H         3.827665        -1.259538         1.242676
 H         4.262616         0.519526         1.675291
 H         2.598570         1.047802         3.099292
 H         2.218111         2.856752         0.509559
