19
Iteration:  3957charge 0 multiplicity 1
 C        -0.100234        -0.143851         0.258612
 C         1.401146        -0.094284         0.066078
 C         2.145435        -0.520774        -1.208053
 C         3.233976         0.399502        -0.658367
 C         3.739685        -0.211119         0.684115
 C         2.341131        -0.002571         1.270851
 O         2.092420        -0.015865         2.621631
 C         2.214627         1.211667         0.209114
 O         1.884448         2.579868         0.217124
 H        -0.627138         0.748811         0.654152
 H        -0.473253        -0.312041        -0.780494
 H        -0.367152        -1.079356         0.726070
 H         2.245964        -1.590925        -1.537730
 H         1.565852         0.048942        -1.968853
 H         3.964988         0.906632        -1.233114
 H         4.313842        -1.143493         0.608159
 H         4.449292         0.541598         1.242667
 H         1.720067        -0.858351         2.908370
 H         2.075011         3.008963         1.077827
