19
Iteration:  4221
 C        -0.188900        -0.177570         0.221214
 C         1.279496         0.011511         0.066649
 C         2.129130        -0.390985        -1.175014
 C         3.300782         0.507392        -0.622809
 C         3.875019        -0.375540         0.598488
 C         2.425301         0.013964         1.218300
 O         2.024538        -0.178810         2.509764
 C         2.180572         1.213315         0.289842
 O         1.901572         2.653203         0.386811
 H        -0.848928         0.416685        -0.522497
 H        -0.415626        -1.265322         0.094077
 H        -0.398580         0.071184         1.271988
 H         2.165974        -1.453486        -1.451872
 H         1.636133         0.116194        -2.018611
 H         3.882096         1.135006        -1.379008
 H         4.288869        -1.395873         0.389035
 H         4.692681         0.376081         0.975370
 H         1.901145        -1.150495         2.608715
 H         2.463928         2.894721         1.118057
