19
Iteration:  4225
 C        -0.186747        -0.172501         0.213272
 C         1.300385         0.048048         0.046444
 C         2.105867        -0.369291        -1.161312
 C         3.279024         0.478004        -0.654175
 C         3.910654        -0.346976         0.596940
 C         2.419637         0.042881         1.238843
 O         2.026894        -0.177360         2.514970
 C         2.165597         1.192125         0.291621
 O         1.914301         2.601652         0.405331
 H        -0.716945         0.234365        -0.618166
 H        -0.393600        -1.236461         0.131949
 H        -0.533773         0.164769         1.233228
 H         2.307226        -1.453040        -1.440934
 H         1.627519         0.135550        -2.039307
 H         3.784740         1.057846        -1.441636
 H         4.254031        -1.310892         0.287543
 H         4.660266         0.301236         1.037536
 H         1.758542        -1.092619         2.673728
 H         2.463448         2.902660         1.183043
