19
Iteration:   836
 C        -0.052019        -0.003367         0.416338
 C         1.422543        -0.104956         0.046492
 C         2.439550        -1.071223        -0.645093
 C         3.410228         0.208430        -0.373479
 C         3.743817         0.127458         1.066859
 C         2.272966         0.252944         1.334887
 O         1.693871         0.222746         2.619816
 C         2.195320         1.148552        -0.130763
 O         1.853385         2.305337        -0.770180
 H        -0.238477         1.075401         0.578833
 H        -0.842482        -0.373204        -0.254108
 H        -0.130022        -0.355425         1.484282
 H         2.591232        -2.033199        -0.174632
 H         2.210157        -1.252431        -1.640401
 H         4.324229         0.192771        -1.101676
 H         4.249104        -0.755954         1.544182
 H         4.317710         1.128947         1.268926
 H         1.585398         1.099674         2.936411
 H         2.178641         3.076353        -0.267132
