19
Iteration:  2662charge 0 multiplicity 1
 C        -0.023286        -0.260362         0.468560
 C         1.398113        -0.161297         0.134465
 C         2.406446        -0.892096        -0.866043
 C         3.437406         0.129827        -0.531970
 C         3.780025        -0.126164         0.915749
 C         2.412044         0.369704         1.301311
 O         1.767092         0.581588         2.576329
 C         2.201364         1.105263        -0.050573
 O         1.726046         2.335056        -0.310224
 H        -0.670061         0.313935        -0.207902
 H        -0.540170        -1.255649         0.521909
 H        -0.252543         0.153324         1.520506
 H         2.571323        -1.996756        -0.788304
 H         2.158187        -0.640324        -1.920557
 H         4.190310         0.473288        -1.256186
 H         3.992844        -1.207763         1.305571
 H         4.478642         0.574929         1.193330
 H         1.640699         1.530141         2.720472
 H         1.393889         2.372619        -1.228856
