19
Iteration:   403charge 0 multiplicity 1
 C        -0.030781         0.060385         0.199199
 C         1.436601        -0.229062         0.097570
 C         2.418130        -1.047570        -0.822262
 C         3.483139         0.061366        -0.480127
 C         3.806855        -0.009781         1.260600
 C         2.333689         0.336959         1.340914
 O         1.779332         0.675459         2.614808
 C         2.193169         0.941579        -0.100031
 O         1.671502         2.247491        -0.432788
 H        -0.223621         0.967955         0.820325
 H        -0.466885         0.377621        -0.790823
 H        -0.681334        -0.774717         0.514371
 H         2.794611        -2.129901        -0.528456
 H         2.104602        -0.963281        -1.937632
 H         4.279964         0.357878        -1.117961
 H         3.965034        -1.053435         1.578217
 H         4.528678         0.698332         1.606156
 H         0.806273         0.747808         2.742752
 H         2.185435         2.597082        -1.174185
