19
Iteration:  2750charge 0 multiplicity 1
 C        -0.065060        -0.645501         0.505677
 C         1.352271        -0.152543         0.069861
 C         2.260575        -0.927449        -0.886891
 C         3.320279         0.133261        -0.539009
 C         3.770972         0.004357         0.880254
 C         2.307500         0.379167         1.240601
 O         1.733664         0.740772         2.451074
 C         2.161982         1.121899        -0.026828
 O         2.047141         2.439620        -0.225421
 H        -0.130018        -1.692319         0.598182
 H        -0.221177        -0.151425         1.441571
 H        -0.687806        -0.129920        -0.236938
 H         2.522163        -1.967415        -0.652186
 H         1.893366        -0.748400        -1.894874
 H         4.147250         0.398349        -1.175596
 H         4.034872        -1.133724         1.185927
 H         4.534169         0.667914         1.171066
 H         2.500277         0.967182         2.995767
 H         1.804658         2.920008         0.592470
