19
Iteration:   772
 C        -0.089750        -0.528533         0.183389
 C         1.411918        -0.222830         0.133281
 C         2.320960        -0.968414        -0.916479
 C         3.437797         0.101615        -0.443447
 C         3.702886        -0.210742         1.123066
 C         2.245697         0.262277         1.351053
 O         1.790805         1.103749         2.493873
 C         2.276040         1.062510        -0.007204
 O         1.826886         2.367059        -0.368365
 H        -0.624791         0.445995         0.422253
 H        -0.553443        -0.845911        -0.779846
 H        -0.293250        -1.218396         1.065502
 H         2.833407        -2.007580        -0.895449
 H         2.002302        -0.631169        -1.919463
 H         4.414958         0.327936        -1.048291
 H         4.129024        -1.147953         1.542116
 H         4.416287         0.606384         1.455501
 H         2.529074         1.074799         3.142384
 H         1.785547         2.888962         0.485503
