19
Iteration:  4259charge 0 multiplicity 1
 C        -0.113629        -0.177846         0.208457
 C         1.367075        -0.083858         0.003820
 C         2.128358        -0.392763        -1.263360
 C         3.269002         0.463909        -0.736873
 C         3.791308        -0.350592         0.576617
 C         2.352344         0.003362         1.149096
 O         2.090066        -0.046350         2.519612
 C         2.189418         1.248885         0.242079
 O         1.881512         2.544832         0.664726
 H        -0.609789        -0.532950        -0.658520
 H        -0.360986        -0.831039         1.041720
 H        -0.614209         0.806894         0.321841
 H         2.514579        -1.398101        -1.576455
 H         1.508094         0.098193        -2.038693
 H         3.918662         0.991252        -1.379273
 H         4.259746        -1.331654         0.420246
 H         4.519780         0.152529         1.180826
 H         1.204302        -0.269039         2.793431
 H         2.514627         2.760450         1.379384
