19
Iteration:  4097
 C        -0.231329        -0.208875         0.085343
 C         1.316027        -0.094490         0.014355
 C         2.133889        -0.575266        -1.130331
 C         3.310016         0.463442        -0.663157
 C         3.781198        -0.231008         0.650684
 C         2.398057         0.016660         1.099549
 O         2.234670         0.036894         2.560526
 C         2.199379         1.268766         0.230330
 O         1.851907         2.549888         0.527392
 H        -0.555412        -1.222587         0.399903
 H        -0.576145         0.553917         0.801712
 H        -0.708718         0.093611        -0.860092
 H         2.164001        -1.639028        -1.268783
 H         1.703344        -0.129625        -2.022864
 H         4.054674         0.775202        -1.356778
 H         4.090095        -1.319607         0.505849
 H         4.448284         0.264275         1.300062
 H         1.293275        -0.101346         2.773321
 H         2.029190         2.626501         1.468413
