19
Iteration:   874
 C        -0.044624        -0.211892         0.318692
 C         1.493951        -0.130390         0.217333
 C         2.349713        -0.824558        -0.759716
 C         3.373278         0.159971        -0.384297
 C         3.719682        -0.058685         1.120420
 C         2.330122         0.450115         1.405920
 O         1.708223         0.377258         2.652116
 C         2.239001         1.152731         0.026233
 O         1.825199         2.259182        -0.819519
 H        -0.463641         0.718509         0.787555
 H        -0.516802        -0.386813        -0.669058
 H        -0.382148        -1.082294         0.880540
 H         2.452613        -1.955402        -0.726194
 H         1.884850        -0.520489        -1.815534
 H         4.252400         0.482254        -0.848213
 H         3.988714        -1.112548         1.294266
 H         4.562450         0.531096         1.342921
 H         1.777201         1.267755         3.076948
 H         2.567259         2.385719        -1.410940
