19
Iteration:  3933charge 0 multiplicity 1
 C        -0.225085        -0.149836         0.207992
 C         1.332416        -0.069226        -0.036995
 C         2.175125        -0.505504        -1.116352
 C         3.296224         0.410016        -0.712318
 C         3.851671        -0.325630         0.645517
 C         2.506754         0.184670         1.312736
 O         2.096081         0.075231         2.591971
 C         2.187343         1.169543         0.195178
 O         1.773990         2.469686         0.352874
 H        -0.585295         0.360925         1.108492
 H        -0.669670         0.419188        -0.624805
 H        -0.609428        -1.187064         0.041460
 H         2.497957        -1.572412        -1.021543
 H         1.684550        -0.336535        -2.095285
 H         4.048920         0.835200        -1.416272
 H         4.176534        -1.395129         0.574168
 H         4.721102         0.159985         1.099089
 H         1.284803        -0.463517         2.723262
 H         2.241498         2.853849         1.132954
