19
Iteration:  1028charge 0 multiplicity 1
 C        -0.059412        -0.535916         0.296061
 C         1.331414        -0.106305         0.016283
 C         2.274706        -0.873524        -0.811571
 C         3.430557         0.120258        -0.350657
 C         3.668474        -0.204557         1.187713
 C         2.303513         0.426395         1.375013
 O         1.838001         0.714411         2.584578
 C         2.248070         1.121368        -0.018318
 O         1.958532         2.466393        -0.522197
 H        -0.678045         0.096978         0.957806
 H        -0.683911        -0.531826        -0.651106
 H         0.013259        -1.587026         0.674830
 H         2.563370        -1.871740        -0.601786
 H         2.173125        -0.729969        -1.926196
 H         4.200007         0.379883        -0.976514
 H         3.826169        -1.356330         1.199179
 H         4.545998         0.250917         1.629039
 H         1.259516         1.530994         2.449566
 H         1.870417         2.530419        -1.510226
