19
Iteration:   461
 C        -0.126065        -0.569695         0.135489
 C         1.319156        -0.116139         0.057580
 C         2.266594        -0.942925        -0.786536
 C         3.337880         0.033333        -0.397117
 C         3.698366        -0.166140         1.039940
 C         2.380675         0.542777         1.430195
 O         1.757978         0.763417         2.619926
 C         2.250742         1.123570         0.061675
 O         2.123495         2.465689        -0.498557
 H        -0.689422        -0.236980         1.084463
 H        -0.565486        -0.170190        -0.832205
 H        -0.117390        -1.710069         0.163186
 H         2.526392        -2.054713        -0.407993
 H         2.284986        -1.038917        -1.864183
 H         4.295086         0.378786        -0.945507
 H         3.988654        -1.199510         1.216933
 H         4.584860         0.412949         1.406009
 H         1.109760         1.464588         2.669174
 H         1.158004         2.611277        -0.354905
