19
Iteration:  3837
 C        -0.178706        -0.387045         0.395033
 C         1.361853        -0.111838         0.047606
 C         2.163998        -0.600355        -1.166758
 C         3.267293         0.410475        -0.641657
 C         3.692700        -0.192001         0.700958
 C         2.372394         0.126710         1.275115
 O         1.937575         0.072599         2.578747
 C         2.260643         1.266561         0.208148
 O         2.085849         2.700240         0.126259
 H        -0.520347        -1.095919        -0.379850
 H        -0.463130        -0.926088         1.333006
 H        -0.683097         0.553034         0.246139
 H         2.460705        -1.659109        -1.184705
 H         1.663329        -0.298771        -2.103859
 H         4.018211         0.808773        -1.336343
 H         3.942915        -1.160226         0.377431
 H         4.646163         0.311299         1.184976
 H         2.235087        -0.873212         2.726293
 H         1.252715         2.798214         0.620324
