19
Iteration:  2634charge 0 multiplicity 1
 C        -0.018754        -0.160478         0.292219
 C         1.423888        -0.266688         0.214344
 C         2.312284        -1.068195        -0.784178
 C         3.420794         0.207438        -0.538464
 C         3.843493        -0.095395         0.927516
 C         2.440630         0.306559         1.269164
 O         1.831098         0.678312         2.436739
 C         2.202362         1.084415         0.017518
 O         1.610376         2.305026        -0.164459
 H        -0.283967         0.904822         0.070572
 H        -0.501737        -0.694692        -0.558369
 H        -0.409432        -0.259385         1.297668
 H         2.549229        -2.076442        -0.440295
 H         2.003495        -0.965388        -1.829946
 H         4.102149         0.601095        -1.276529
 H         4.145020        -1.081427         1.225993
 H         4.536867         0.795108         1.405051
 H         2.253889         1.551292         2.629211
 H         1.237725         2.357539        -1.078580
