19
Iteration:  4894charge 0 multiplicity 1
 C        -0.151483         0.062312         0.167705
 C         1.311506         0.111193        -0.078632
 C         2.084109        -0.045946        -1.359664
 C         3.203595         0.706138        -0.610456
 C         3.741219        -0.339385         0.362413
 C         2.398232        -0.135831         1.128470
 O         2.142931        -0.653482         2.452410
 C         2.282220         1.172680         0.499335
 O         1.943794         2.496063         0.936633
 H        -0.522506         1.018398         0.532995
 H        -0.736860        -0.157078        -0.760271
 H        -0.434683        -0.670477         0.931329
 H         2.156505        -1.062973        -1.549930
 H         1.709435         0.642573        -2.126855
 H         3.995364         1.237432        -1.053442
 H         3.918658        -1.349993        -0.070031
 H         4.552944         0.113145         0.810489
 H         1.609583        -1.485450         2.359466
 H         2.142718         2.800381         0.003451
