19
Iteration:   420
 C        -0.101014        -0.094018         0.155680
 C         1.404609        -0.300095         0.121170
 C         2.451040        -1.037141        -0.737442
 C         3.474634         0.050147        -0.344090
 C         3.662206        -0.058703         1.055023
 C         2.238715         0.390335         1.286157
 O         1.871828         0.654246         2.588223
 C         2.278288         1.109801         0.025019
 O         1.774489         2.322152        -0.438450
 H        -0.291565         0.575874         1.003767
 H        -0.478930         0.430714        -0.711827
 H        -0.722549        -0.956968         0.406431
 H         2.630210        -2.029911        -0.502324
 H         2.197427        -0.915872        -1.768373
 H         4.346842         0.167043        -1.017033
 H         4.107189        -0.936405         1.526388
 H         4.188812         0.903821         1.371367
 H         0.951000         0.950430         2.497834
 H         2.029751         2.426341        -1.363923
