19
Iteration:  2893charge 0 multiplicity 1
 C         0.013187        -0.276840         0.520471
 C         1.421974        -0.102955         0.224461
 C         2.231635        -0.795904        -0.857741
 C         3.377871         0.231375        -0.525261
 C         3.810172        -0.037077         0.937554
 C         2.385223         0.349114         1.271824
 O         1.803429         0.269781         2.528535
 C         2.194732         1.166788         0.006742
 O         1.730792         2.368692        -0.507758
 H        -0.540095         0.538288         0.066216
 H        -0.216952        -1.267989         0.102894
 H        -0.077240        -0.272523         1.654744
 H         2.424654        -1.880387        -0.650480
 H         1.868846        -0.571277        -1.876946
 H         3.917386         0.488547        -1.438789
 H         4.036434        -1.167899         1.016215
 H         4.482023         0.448045         1.569516
 H         2.156543         0.945161         3.116977
 H         2.372331         3.068802        -0.267438
