19
Iteration:  2883
 C        -0.064818        -0.223663         0.475439
 C         1.412249        -0.179121         0.162374
 C         2.279781        -0.779574        -0.844318
 C         3.382703         0.334310        -0.507213
 C         3.768818        -0.080461         0.941159
 C         2.397401         0.309641         1.350031
 O         1.896069         0.246807         2.618064
 C         2.175356         1.146734        -0.015456
 O         1.734609         2.358759        -0.576054
 H        -0.682276         0.634975         0.287663
 H        -0.699409        -1.028238         0.023668
 H        -0.236040        -0.495567         1.535597
 H         2.590471        -1.844571        -0.679636
 H         1.736159        -0.654998        -1.794930
 H         4.171434         0.733228        -1.174997
 H         4.043536        -1.236664         1.152445
 H         4.513296         0.622777         1.165116
 H         2.099244         1.090277         3.029066
 H         2.349085         3.108945        -0.397082
