19
Iteration:  2267
 C        -0.119218        -0.396127         0.452949
 C         1.410111        -0.299997         0.146961
 C         2.406579        -1.069193        -0.746475
 C         3.396234         0.077633        -0.522234
 C         3.754137        -0.116497         1.041807
 C         2.403597         0.464315         1.240058
 O         1.891299         1.057043         2.396178
 C         2.187866         0.982382        -0.127081
 O         1.746311         2.306469        -0.234733
 H        -0.351813        -0.285103         1.506142
 H        -0.811121         0.260476        -0.051613
 H        -0.490620        -1.455331         0.209302
 H         2.671944        -2.076522        -0.385611
 H         2.101308        -1.223573        -1.771219
 H         4.197429         0.489110        -1.097054
 H         3.959303        -1.125924         1.111714
 H         4.497527         0.649043         1.431278
 H         1.900650         1.999334         2.137433
 H         1.054437         2.217422        -0.933275
