19
Iteration:  4504charge 0 multiplicity 1
 C        -0.295254        -0.278140         0.096870
 C         1.278685        -0.080810        -0.022009
 C         2.127625        -0.267261        -1.349880
 C         3.255624         0.609697        -0.632055
 C         3.749149        -0.361718         0.478782
 C         2.327496        -0.057627         1.139461
 O         2.081812        -0.124878         2.470203
 C         2.204854         1.299772         0.332377
 O         2.119122         2.556377         0.854888
 H        -0.674875        -0.765967        -0.851851
 H        -0.788603        -0.623447         0.999405
 H        -0.666226         0.750832         0.029655
 H         2.545444        -1.221881        -1.733671
 H         1.805999         0.305859        -2.256477
 H         3.911236         1.139224        -1.363395
 H         4.015250        -1.378389         0.194644
 H         4.494741         0.010365         1.165707
 H         2.437030        -0.980308         2.849893
 H         2.134324         2.452554         1.840426
