19
Iteration:  3897charge 0 multiplicity 1
 C        -0.066173        -0.187495         0.286737
 C         1.373927        -0.081812        -0.004985
 C         2.257157        -0.502365        -1.183417
 C         3.397093         0.288814        -0.735406
 C         3.749026        -0.344506         0.682696
 C         2.399641         0.032554         1.156910
 O         2.048583         0.273230         2.583647
 C         2.213692         1.175862         0.147654
 O         1.671019         2.500272         0.471498
 H        -0.405634        -0.806833         1.095358
 H        -0.294890         0.859178         0.389584
 H        -0.722380        -0.563697        -0.555791
 H         2.287658        -1.571045        -1.359986
 H         1.537895        -0.133035        -1.901703
 H         4.192288         0.526701        -1.500336
 H         4.197715        -1.327324         0.430353
 H         4.394386         0.302915         1.087045
 H         1.231499        -0.224757         2.815221
 H         2.378692         2.951815         1.005551
