19
Iteration:  3986charge 0 multiplicity 1
 C        -0.203993        -0.219772         0.418485
 C         1.336827        -0.014598        -0.005518
 C         2.212951        -0.458091        -1.192147
 C         3.312162         0.433310        -0.565702
 C         3.829596        -0.260669         0.668693
 C         2.403521         0.138380         1.239833
 O         1.952636        -0.081059         2.517206
 C         2.196675         1.180385         0.234220
 O         1.907385         2.565321         0.157150
 H        -0.892780         0.609086         0.283331
 H        -0.607965        -1.023573        -0.193749
 H        -0.222608        -0.567775         1.495118
 H         2.269309        -1.495517        -1.480366
 H         1.844491         0.125969        -2.034668
 H         4.016072         1.086401        -1.167078
 H         4.045076        -1.323645         0.366007
 H         4.625791         0.100697         1.196929
 H         2.152931        -0.999837         2.809222
 H         2.157619         3.113664         0.940426
