19
Iteration:  3676
 C        -0.156021        -0.297053         0.203459
 C         1.340321        -0.052365         0.149148
 C         2.234244        -0.637083        -1.079677
 C         3.225180         0.345420        -0.558035
 C         3.769990        -0.205607         0.687690
 C         2.407422         0.145943         1.298423
 O         2.020396         0.246044         2.625121
 C         2.207680         1.212282         0.175552
 O         1.948857         2.509631         0.097077
 H        -0.387177        -1.345028         0.557549
 H        -0.687994         0.383963         0.811927
 H        -0.594947        -0.447460        -0.773092
 H         2.425296        -1.740091        -1.189999
 H         1.716913        -0.309840        -2.014550
 H         3.933797         0.662177        -1.345380
 H         4.256588        -1.200699         0.754711
 H         4.390610         0.600578         0.994888
 H         2.185997        -0.619603         3.080079
 H         1.117096         2.758016        -0.358126
