19
Iteration:  1344
 C        -0.073721        -0.500688         0.147723
 C         1.392385        -0.254454         0.217662
 C         2.361989        -0.938615        -0.835983
 C         3.411678         0.230688        -0.478484
 C         3.779368        -0.095176         1.045226
 C         2.287338         0.291530         1.402044
 O         1.852425         0.938845         2.582165
 C         2.259887         1.090040         0.060006
 O         1.878238         2.291410        -0.460307
 H        -0.676073         0.390537         0.292258
 H        -0.235889        -0.969426        -0.837702
 H        -0.361070        -1.061988         1.042810
 H         2.411635        -1.973231        -0.397038
 H         1.859584        -0.724867        -1.789990
 H         4.127866         0.426692        -1.365689
 H         4.053928        -1.133720         1.256675
 H         4.389103         0.715198         1.369907
 H         0.905509         1.138802         2.474726
 H         1.020266         2.601616        -0.120955
