19
Iteration:  3814
 C        -0.062952        -0.396813         0.382354
 C         1.268538         0.063702        -0.005199
 C         2.124473        -0.470195        -1.058677
 C         3.259452         0.340438        -0.580355
 C         3.736982        -0.216178         0.788042
 C         2.413691         0.201390         1.269177
 O         1.997698         0.005860         2.540458
 C         2.069677         1.218701         0.115047
 O         2.128268         2.587408         0.108125
 H        -0.497939        -0.600455        -0.630214
 H        -0.028800        -1.459464         0.675394
 H        -0.681247         0.296998         0.934749
 H         2.291583        -1.558077        -0.898041
 H         1.631936        -0.292290        -2.035775
 H         3.807412         0.840726        -1.421102
 H         4.092803        -1.211485         0.807541
 H         4.570232         0.508739         1.202939
 H         2.031530        -0.951988         2.631386
 H         1.260200         3.012418         0.016568
