19
Iteration:  3094
 C        -0.016780        -0.362248         0.456956
 C         1.357102        -0.058110         0.176847
 C         2.205740        -0.771869        -0.971217
 C         3.308640         0.299920        -0.546103
 C         3.816950        -0.135391         0.867529
 C         2.376232         0.352403         1.353237
 O         1.935907         0.275562         2.640488
 C         2.165015         1.152825         0.043025
 O         1.766144         2.425377        -0.364426
 H        -0.305249         0.271977         1.386369
 H        -0.472588         0.045542        -0.516608
 H        -0.147328        -1.428681         0.541613
 H         2.472141        -1.885017        -0.917079
 H         1.754284        -0.660145        -1.991468
 H         3.917349         0.722232        -1.333536
 H         3.897090        -1.239670         0.962316
 H         4.615500         0.445310         1.165044
 H         2.223121         0.957723         3.267641
 H         2.449706         2.786805        -0.966914
