19
Iteration:  1677
 C         0.091538        -0.283894         0.515122
 C         1.491720        -0.219721         0.152809
 C         2.289619        -1.111768        -0.707402
 C         3.429278         0.056692        -0.512040
 C         3.801239        -0.034750         0.979704
 C         2.408606         0.436800         1.265535
 O         1.762822         0.858666         2.431797
 C         2.226785         1.078194        -0.183985
 O         1.564240         2.323953        -0.323529
 H        -0.261695         0.789619         0.575071
 H        -0.488155        -0.648801        -0.334428
 H        -0.197093        -1.009465         1.310108
 H         2.801477        -1.973108        -0.272632
 H         1.943337        -1.265548        -1.757208
 H         4.339285         0.025747        -1.245898
 H         4.386439        -1.008871         1.357755
 H         4.415522         0.795511         1.184784
 H         0.963731         0.343000         2.623923
 H         2.187022         2.947202        -0.723405
