19
Iteration:  2702charge 0 multiplicity 1
 C        -0.113145        -0.625508         0.566049
 C         1.351462        -0.166639         0.154309
 C         2.256653        -0.815741        -0.831388
 C         3.367344         0.221301        -0.499483
 C         3.694613        -0.130023         0.924861
 C         2.307751         0.421111         1.272049
 O         1.795897         0.540862         2.537952
 C         2.186193         1.142830        -0.051189
 O         2.093814         2.529650        -0.452980
 H        -0.335724        -1.161963        -0.374134
 H         0.074854        -1.389807         1.252144
 H        -0.791499         0.136194         0.784867
 H         2.511811        -1.843198        -0.657998
 H         2.037176        -0.540840        -1.870621
 H         4.193609         0.453330        -1.215885
 H         4.017583        -1.138750         1.241749
 H         4.389103         0.680163         1.436294
 H         2.107817         1.419789         2.867198
 H         1.151244         2.661112        -0.679207
