19
Iteration:  3592charge 0 multiplicity 1
 C        -0.103647        -0.349991         0.436857
 C         1.411815        -0.187524         0.094550
 C         2.258477        -0.640705        -1.104541
 C         3.327600         0.227747        -0.684453
 C         3.772677        -0.159536         0.756762
 C         2.430742         0.250236         1.213773
 O         1.888984         0.391447         2.477891
 C         2.135723         1.165459         0.131186
 O         1.922500         2.504284         0.216777
 H        -0.751570         0.146946        -0.308628
 H        -0.457577        -1.373075         0.376313
 H        -0.187749        -0.027428         1.526735
 H         2.485805        -1.709211        -1.048777
 H         1.898708        -0.412231        -2.110892
 H         4.034226         0.608095        -1.401616
 H         4.097340        -1.237046         1.048373
 H         4.528388         0.522861         1.132153
 H         1.346646        -0.374814         2.679126
 H         1.428596         2.827691        -0.551394
