19
Iteration:  3066
 C        -0.035090        -0.296944         0.627210
 C         1.402961        -0.088424         0.216501
 C         2.272158        -0.739984        -0.953115
 C         3.431757         0.209538        -0.608543
 C         3.839709        -0.101038         0.822741
 C         2.370235         0.260007         1.296971
 O         1.809913         0.268568         2.536256
 C         2.211447         1.149558         0.086898
 O         1.704376         2.462598        -0.349466
 H        -0.101940        -0.138083         1.673174
 H        -0.477058         0.514857         0.177079
 H        -0.391154        -1.259870         0.205161
 H         2.486727        -1.785952        -1.010615
 H         1.809957        -0.512068        -1.904776
 H         4.112004         0.444046        -1.471884
 H         4.136245        -1.145289         1.050547
 H         4.703403         0.624283         1.241534
 H         1.492165         1.137870         2.866236
 H         2.274281         2.667170        -1.103593
