19
Iteration:  2611
 C        -0.108736        -0.219576         0.185556
 C         1.369583        -0.284696         0.176045
 C         2.336695        -1.044465        -0.806154
 C         3.441641         0.099956        -0.610782
 C         3.786867         0.007218         0.902334
 C         2.398381         0.346980         1.311253
 O         1.886910         0.766646         2.623032
 C         2.216583         1.047279        -0.097564
 O         1.707826         2.312689        -0.115611
 H        -0.588598         0.656239         0.645922
 H        -0.459578        -0.221773        -0.911430
 H        -0.528908        -1.063450         0.775770
 H         2.795466        -1.969038        -0.409535
 H         1.874444        -1.096027        -1.796559
 H         4.241519         0.067372        -1.316865
 H         4.190646        -0.909518         1.252076
 H         4.414360         0.981244         1.283612
 H         2.464254         1.457372         2.964830
 H         0.985638         2.361224        -0.754668
