19
Iteration:  1241charge 0 multiplicity 1
 C        -0.015292        -0.381709         0.385917
 C         1.398515        -0.221045         0.162278
 C         2.401037        -1.010686        -0.743504
 C         3.423101         0.099446        -0.437559
 C         3.757362         0.132596         1.056367
 C         2.299068         0.353295         1.272344
 O         1.540303         0.592790         2.490164
 C         2.211795         1.070171        -0.085012
 O         2.046852         2.386067        -0.490893
 H        -0.286737        -0.005854         1.389235
 H        -0.587754         0.227735        -0.315417
 H        -0.334792        -1.408435         0.250397
 H         2.653314        -1.989463        -0.559127
 H         2.003787        -0.890141        -1.735301
 H         4.167384         0.385354        -1.142389
 H         4.297545        -0.687416         1.525300
 H         4.199924         1.110350         1.394907
 H         1.890436         1.424407         2.939331
 H         1.094507         2.627028        -0.503277
