19
Iteration:    88charge 0 multiplicity 1
 C        -0.040072        -0.573996         0.428819
 C         1.366306        -0.160292         0.125892
 C         2.294767        -0.976253        -0.799938
 C         3.392170         0.075267        -0.474858
 C         3.633995        -0.179890         1.021636
 C         2.279848         0.389933         1.225050
 O         1.680988         0.954253         2.361317
 C         2.273727         1.129428        -0.041071
 O         2.128203         2.492811        -0.187833
 H        -0.686336         0.140978         0.899790
 H        -0.538578        -0.965249        -0.449834
 H         0.035227        -1.441111         1.053752
 H         2.547596        -2.096377        -0.682561
 H         2.005191        -0.839808        -1.844386
 H         4.091832         0.325631        -1.222182
 H         3.746528        -1.163546         1.386616
 H         4.441052         0.410068         1.394475
 H         0.990740         0.355505         2.595698
 H         2.214988         2.661596        -1.159953
