19
Iteration:  1371charge 0 multiplicity 1
 C        -0.102200        -0.451259         0.336403
 C         1.382429        -0.247762         0.100347
 C         2.447235        -1.046174        -0.763828
 C         3.428390         0.101748        -0.432391
 C         3.742382         0.019722         1.082470
 C         2.306809         0.476078         1.213952
 O         1.818218         0.711777         2.504536
 C         2.143906         1.066599        -0.137207
 O         1.879551         2.424279        -0.268754
 H        -0.582467         0.556089         0.404228
 H        -0.575586        -0.953911        -0.509653
 H        -0.261850        -1.039217         1.266392
 H         2.570311        -2.032420        -0.309544
 H         2.229654        -1.077457        -1.849220
 H         4.143157         0.319070        -1.175194
 H         4.086410        -0.899475         1.575184
 H         4.504917         0.836004         1.337021
 H         1.112053         1.400098         2.468950
 H         1.624185         2.656610        -1.203428
