19
Iteration:   733charge 0 multiplicity 1
 C        -0.092473        -0.756715         0.172422
 C         1.304700        -0.236600         0.058970
 C         2.333414        -1.021177        -0.757720
 C         3.352338         0.068497        -0.466920
 C         3.676690        -0.178870         1.105376
 C         2.326794         0.453119         1.263003
 O         1.853189         1.188103         2.343430
 C         2.215177         1.080791        -0.087967
 O         1.981673         2.509187        -0.145761
 H        -0.723968        -0.409717         0.992911
 H        -0.683473        -0.646819        -0.740253
 H         0.072852        -1.822918         0.178815
 H         2.619659        -1.959300        -0.315232
 H         1.872451        -1.107926        -1.798560
 H         4.170809         0.318858        -1.110096
 H         3.771211        -1.286649         1.276499
 H         4.462072         0.397675         1.606544
 H         1.637857         0.602644         3.123744
 H         2.243439         2.846951         0.736870
