19
Iteration:  3427
 C        -0.135612        -0.509557         0.408128
 C         1.292140        -0.152209         0.127296
 C         2.203256        -0.768807        -0.914746
 C         3.347536         0.229387        -0.569084
 C         3.810389        -0.082069         0.781072
 C         2.373238         0.267387         1.222655
 O         1.984027         0.321138         2.612865
 C         2.212490         1.281326         0.028600
 O         1.981695         2.609222        -0.114955
 H        -0.457411        -1.578675         0.260433
 H        -0.391271        -0.354827         1.457055
 H        -0.769859         0.102695        -0.326141
 H         2.423371        -1.846152        -0.921898
 H         1.838890        -0.436151        -1.890071
 H         4.123325         0.591907        -1.272386
 H         4.182370        -1.172996         0.765781
 H         4.400269         0.688562         1.176255
 H         1.071435         0.005803         2.807435
 H         1.101923         2.901294        -0.449168
