19
Iteration:  4027charge 0 multiplicity 1
 C        -0.011520        -0.260639         0.378397
 C         1.376798         0.027646         0.028031
 C         2.089770        -0.474246        -1.198445
 C         3.365532         0.469135        -0.599536
 C         3.652819        -0.308736         0.644675
 C         2.391031         0.099467         1.213802
 O         1.949540         0.042737         2.450096
 C         2.325491         1.210587         0.198932
 O         1.809127         2.503895         0.357808
 H        -0.629171        -0.353565        -0.525393
 H         0.027239        -1.233708         0.877854
 H        -0.409800         0.419419         1.170390
 H         2.347855        -1.477026        -1.582931
 H         1.720811         0.138313        -2.040878
 H         4.125010         0.760940        -1.407316
 H         3.877096        -1.418199         0.533071
 H         4.463278         0.128506         1.300850
 H         1.718715        -0.887686         2.553119
 H         2.538107         2.984231         0.789561
