19
Iteration:  2223charge 0 multiplicity 1
 C         0.050754        -0.238616         0.454244
 C         1.507319        -0.225011         0.240867
 C         2.244132        -1.078475        -0.757175
 C         3.430298         0.051647        -0.517783
 C         3.831221        -0.055521         0.980840
 C         2.405026         0.477233         1.321727
 O         1.771051         0.811830         2.461517
 C         2.243094         1.072702        -0.085784
 O         1.646651         2.240007        -0.420622
 H        -0.329718         0.416116         1.224760
 H        -0.455317         0.091140        -0.460037
 H        -0.423573        -1.261346         0.640895
 H         2.523572        -2.096372        -0.445095
 H         1.712938        -1.128651        -1.696384
 H         4.249064         0.170877        -1.203066
 H         4.139481        -0.886008         1.556841
 H         4.530812         0.873009         1.042675
 H         2.056021         1.694282         2.749265
 H         0.968872         2.216217        -1.137990
