19
Iteration:  1298
 C        -0.060002        -0.375713         0.219903
 C         1.419191        -0.164528         0.062589
 C         2.427806        -0.990235        -0.744904
 C         3.515887         0.093053        -0.408176
 C         3.697362        -0.091494         1.119612
 C         2.257082         0.364320         1.291187
 O         1.860593         0.828513         2.574045
 C         2.237187         1.143564        -0.049564
 O         1.645503         2.323088        -0.458912
 H        -0.507710         0.427056         0.825845
 H        -0.467679        -0.363294        -0.796324
 H        -0.250001        -1.276372         0.779791
 H         2.780184        -1.937046        -0.366416
 H         2.067615        -0.926765        -1.764054
 H         4.362667         0.434525        -1.025970
 H         3.906578        -1.114727         1.420445
 H         4.245451         0.697422         1.657658
 H         1.723795         0.051888         3.118093
 H         2.297861         2.810796        -1.012397
