19
Iteration:  4793charge 0 multiplicity 1
 C        -0.194091        -0.257981         0.092231
 C         1.280882         0.084127        -0.026379
 C         1.986266        -0.025769        -1.357956
 C         3.229004         0.699799        -0.615401
 C         3.716734        -0.415364         0.406891
 C         2.369847        -0.124455         1.146364
 O         2.029462        -0.369991         2.435574
 C         2.257480         1.235255         0.464791
 O         2.226332         2.547582         0.853651
 H        -0.193781        -1.272849         0.540029
 H        -0.836337         0.293774         0.839229
 H        -0.622253        -0.311164        -0.919323
 H         2.442098        -0.916364        -1.832493
 H         1.560481         0.613042        -2.248555
 H         4.042506         1.400028        -1.003040
 H         3.896009        -1.393868        -0.050075
 H         4.536751        -0.074944         1.094659
 H         1.792787        -1.281701         2.547907
 H         1.749756         2.710691         1.676991
