19
Iteration:  1050
 C        -0.007199        -0.445202         0.281337
 C         1.432901        -0.139354         0.233974
 C         2.362381        -0.875716        -0.802606
 C         3.418783         0.233417        -0.515809
 C         3.578418        -0.249570         1.090356
 C         2.267555         0.482379         1.373293
 O         1.735013         0.617975         2.690618
 C         2.297128         1.224897         0.040190
 O         1.985223         2.333905        -0.645070
 H        -0.703864         0.377316         0.563110
 H        -0.258194        -0.570805        -0.813369
 H        -0.265245        -1.367380         0.871459
 H         2.617680        -1.894542        -0.722956
 H         1.903704        -0.694573        -1.811105
 H         4.321263         0.445068        -0.960267
 H         3.712097        -1.397418         1.248230
 H         4.449801         0.281189         1.461436
 H         1.493437         1.517692         2.832785
 H         1.211365         2.275717        -1.231565
