19
Iteration:  4438charge 0 multiplicity 1
 C        -0.097850        -0.019110         0.328222
 C         1.363014        -0.024989        -0.011625
 C         2.223644        -0.233931        -1.296026
 C         3.333426         0.536457        -0.688947
 C         3.742110        -0.370716         0.502733
 C         2.434103        -0.011100         1.122687
 O         2.031945        -0.259794         2.513209
 C         2.260813         1.229890         0.302758
 O         1.729554         2.421181         0.660705
 H        -0.505964         0.974106        -0.056417
 H        -0.710752        -0.866315        -0.048309
 H        -0.256970         0.103463         1.440862
 H         2.518727        -1.210686        -1.843491
 H         1.697059         0.430392        -2.072173
 H         4.104450         0.991099        -1.414607
 H         3.736822        -1.418323         0.167284
 H         4.565323        -0.045581         1.168551
 H         1.272967        -0.837972         2.381581
 H         2.486287         2.965528         0.973816
