19
Iteration:  1992charge 0 multiplicity 1
 C        -0.059403        -0.418671         0.534842
 C         1.451015        -0.177877         0.196662
 C         2.270356        -1.011105        -0.737126
 C         3.382266         0.045438        -0.462767
 C         3.805673        -0.003440         1.015200
 C         2.432191         0.590253         1.314258
 O         1.816031         0.691201         2.527196
 C         2.196292         1.104572        -0.128389
 O         1.722765         2.326835        -0.614360
 H         0.023742         0.012260         1.570162
 H        -0.917924         0.032510         0.020352
 H        -0.218244        -1.501069         0.702667
 H         2.551111        -2.043823        -0.451808
 H         1.763195        -0.928575        -1.704834
 H         4.160948         0.285481        -1.277444
 H         4.042479        -0.883643         1.541885
 H         4.735504         0.711298         1.194154
 H         2.338938         1.312398         3.078677
 H         1.352086         2.136929        -1.510134
