19
Iteration:  2025charge 0 multiplicity 1
 C        -0.119753        -0.515366         0.253758
 C         1.358564        -0.328419         0.274568
 C         2.309756        -1.060390        -0.594351
 C         3.280701         0.146278        -0.508799
 C         3.768875         0.022197         0.932527
 C         2.328685         0.379817         1.316515
 O         2.013242         0.958086         2.547597
 C         2.149429         1.011797        -0.080760
 O         1.849657         2.385433        -0.442447
 H        -0.398387        -0.177718         1.287964
 H        -0.814519        -0.037223        -0.452310
 H        -0.418697        -1.595330         0.310749
 H         2.777791        -2.010508        -0.239740
 H         1.697361        -1.216541        -1.493102
 H         3.942146         0.461314        -1.382257
 H         4.246026        -0.868726         1.195417
 H         4.433798         0.981313         1.091009
 H         2.650327         1.650101         2.731839
 H         1.363210         2.419963        -1.279556
