19
Iteration:  4989charge 0 multiplicity 1
 C        -0.126082        -0.241125         0.282852
 C         1.273940         0.095198        -0.032585
 C         2.042611         0.153667        -1.363320
 C         3.342452         0.647155        -0.688964
 C         3.674320        -0.447315         0.393344
 C         2.379193        -0.113114         0.974755
 O         1.976147        -0.355396         2.260301
 C         2.216043         1.245169         0.395077
 O         2.119504         2.430155         1.122870
 H        -0.450315        -0.917159        -0.504286
 H        -0.264803        -0.845109         1.214993
 H        -0.841374         0.597169         0.254718
 H         2.185864        -0.816683        -1.918679
 H         1.573594         0.960381        -1.999523
 H         4.137189         1.177860        -1.184738
 H         3.849614        -1.422520        -0.134023
 H         4.592630         0.001525         0.896508
 H         1.669201        -1.249862         2.354044
 H         2.595300         2.197148         1.955119
