19
Iteration:  3580
 C        -0.129816        -0.363391         0.347178
 C         1.347480        -0.118778         0.011082
 C         2.226536        -0.784373        -1.057662
 C         3.395156         0.289318        -0.700757
 C         3.762848        -0.114461         0.741699
 C         2.333417         0.177303         1.231671
 O         1.957667         0.430579         2.567194
 C         2.225319         1.169116         0.113224
 O         1.901248         2.510784         0.249313
 H        -0.701257         0.526556        -0.060768
 H        -0.450631        -1.312198        -0.016145
 H        -0.519594        -0.233814         1.438015
 H         2.554124        -1.835291        -1.087924
 H         1.639006        -0.532192        -1.955462
 H         4.175619         0.447996        -1.459138
 H         4.331834        -1.140244         0.874986
 H         4.342426         0.682824         1.119070
 H         1.802337        -0.461179         2.964502
 H         1.359368         2.712148        -0.530583
