19
Iteration:  2739
 C         0.038258        -0.606753         0.467440
 C         1.338050        -0.186317         0.123290
 C         2.209699        -0.943011        -0.895817
 C         3.250462         0.186915        -0.569229
 C         3.739897        -0.075099         0.940300
 C         2.393818         0.433125         1.271427
 O         1.711803         0.719985         2.459158
 C         2.132910         1.114632         0.012658
 O         2.121606         2.494679        -0.288207
 H         0.068149        -1.628656         0.169390
 H        -0.264560        -0.628303         1.501850
 H        -0.894154        -0.334297        -0.079978
 H         2.458852        -1.974541        -0.596972
 H         1.843289        -1.046230        -1.920898
 H         3.864080         0.590599        -1.359963
 H         4.301886        -1.119954         1.175769
 H         4.441464         0.693111         1.083350
 H         2.243549         1.001588         3.235238
 H         1.564825         2.910177         0.417992
