19
Iteration:   506charge 0 multiplicity 1
 C        -0.091636        -0.565276         0.479746
 C         1.384477        -0.224023         0.112383
 C         2.398558        -0.898829        -0.883779
 C         3.395668         0.158256        -0.427556
 C         3.588802        -0.154960         1.058743
 C         2.227436         0.281482         1.221079
 O         1.561766         0.873497         2.348192
 C         2.246033         1.123754        -0.043374
 O         2.201280         2.443743        -0.328096
 H        -0.628593         0.113898         1.214728
 H        -0.700136        -0.694404        -0.451090
 H        -0.207364        -1.644360         0.854467
 H         2.749491        -2.048624        -0.768780
 H         2.051697        -0.758059        -1.888448
 H         4.322847         0.405625        -1.000690
 H         3.873391        -1.118798         1.447292
 H         4.323694         0.586500         1.453736
 H         2.283679         1.381634         2.718988
 H         2.124540         3.031864         0.448095
