19
Iteration:  4826
 C        -0.127120         0.036365         0.289122
 C         1.360255         0.089906        -0.061169
 C         2.074302        -0.067259        -1.430048
 C         3.326398         0.641632        -0.638006
 C         3.772956        -0.436534         0.409283
 C         2.427642        -0.100307         1.074444
 O         2.000975        -0.400574         2.390638
 C         2.296042         1.213200         0.390343
 O         1.922331         2.386224         0.963370
 H        -0.231907        -0.587963         1.170478
 H        -0.664862         1.011918         0.425902
 H        -0.689577        -0.561675        -0.449561
 H         2.213987        -1.079736        -1.687777
 H         1.763555         0.782698        -2.137778
 H         4.040280         1.204369        -1.289214
 H         3.889830        -1.504454         0.169051
 H         4.636545        -0.021022         0.958245
 H         1.860699        -1.380906         2.447721
 H         1.055591         2.788697         0.922346
