19
Iteration:  3017
 C        -0.117017        -0.407472         0.332343
 C         1.347623        -0.240244         0.161476
 C         2.284763        -0.867998        -0.873155
 C         3.310796         0.203479        -0.594905
 C         3.785178        -0.134128         0.792135
 C         2.416614         0.290297         1.210850
 O         1.961080         0.596763         2.603381
 C         2.155868         1.094108        -0.054539
 O         1.804813         2.489963         0.016122
 H        -0.318289        -1.298223         0.997529
 H        -0.447560         0.515971         0.923439
 H        -0.484594        -0.537944        -0.669538
 H         2.645807        -1.932435        -0.696707
 H         1.934093        -0.801316        -1.944537
 H         4.085637         0.546629        -1.251484
 H         4.270551        -1.210582         0.772682
 H         4.471511         0.612447         1.179696
 H         2.020495         1.556134         2.538537
 H         1.559461         2.870249        -0.865048
