19
Iteration:  4464
 C        -0.141516        -0.047154         0.168118
 C         1.321306         0.076413        -0.075564
 C         2.057943        -0.240162        -1.329316
 C         3.289605         0.504849        -0.639548
 C         3.836537        -0.395104         0.537504
 C         2.447645        -0.103658         1.048813
 O         2.089296        -0.129042         2.544668
 C         2.297187         1.174547         0.347767
 O         1.775486         2.440732         0.755963
 H        -0.599293         0.318450        -0.757590
 H        -0.484736        -1.095187         0.251573
 H        -0.517565         0.703498         0.910877
 H         2.185053        -1.332631        -1.611030
 H         1.587199         0.276992        -2.150169
 H         4.025192         1.003027        -1.181953
 H         4.077497        -1.405363         0.183707
 H         4.624267         0.164098         1.188127
 H         1.922913        -1.051498         2.705187
 H         2.241965         2.748276         1.554351
