19
Iteration:  4341
 C        -0.230939        -0.219947         0.264834
 C         1.270239         0.043114        -0.000369
 C         2.135932        -0.292496        -1.222893
 C         3.279248         0.615753        -0.709650
 C         3.762209        -0.351511         0.636808
 C         2.483497        -0.050623         1.171008
 O         2.079891        -0.306241         2.515475
 C         2.283399         1.257080         0.289755
 O         1.923194         2.558664         0.544013
 H        -0.439270        -0.903681         1.126662
 H        -0.859453         0.686776         0.274770
 H        -0.556955        -0.612293        -0.691547
 H         2.231712        -1.361019        -1.455564
 H         1.664823         0.087080        -2.141619
 H         4.025079         1.074917        -1.457652
 H         3.906315        -1.360276         0.236771
 H         4.583071         0.211490         1.184948
 H         1.132028        -0.103602         2.650693
 H         2.670797         3.174058         0.763915
