19
Iteration:  1840
 C        -0.008050        -0.376222         0.575581
 C         1.439369        -0.265247         0.199867
 C         2.218126        -1.021880        -0.807865
 C         3.381513         0.038503        -0.516559
 C         3.837007         0.003983         0.977877
 C         2.345835         0.362147         1.224107
 O         1.832161         0.894916         2.378086
 C         2.206753         1.035115        -0.091695
 O         1.754080         2.326644        -0.263508
 H        -0.373141         0.627784         1.014330
 H        -0.653448        -0.644313        -0.273216
 H         0.010129        -1.182493         1.405098
 H         2.486653        -2.076941        -0.553280
 H         2.129468        -0.907023        -1.927537
 H         4.179252         0.175309        -1.359608
 H         4.238323        -1.001057         1.181132
 H         4.500204         0.827308         1.542853
 H         1.412083         1.741738         2.182833
 H         1.838401         2.546485        -1.209186
