19
Iteration:  4417charge 0 multiplicity 1
 C        -0.022430        -0.026537         0.365865
 C         1.423764         0.099941         0.039452
 C         2.057956        -0.253103        -1.383331
 C         3.339681         0.567500        -0.591219
 C         3.767052        -0.398941         0.542034
 C         2.472699        -0.086383         1.175935
 O         2.009386        -0.362763         2.426700
 C         2.236038         1.201763         0.408443
 O         1.746858         2.532621         0.461434
 H        -0.482890         0.972670         0.606999
 H        -0.503194        -0.582478        -0.461658
 H        -0.099485        -0.529966         1.347747
 H         2.368340        -1.345926        -1.591685
 H         1.559272         0.255559        -2.269916
 H         4.013007         1.272538        -1.157493
 H         3.973209        -1.469619         0.402562
 H         4.551745         0.101322         1.206870
 H         1.130697        -0.748274         2.560350
 H         2.295979         3.052379         1.046046
