19
Iteration:  2586
 C        -0.115841        -0.402690         0.200068
 C         1.316180        -0.229338         0.149561
 C         2.302539        -0.963096        -0.717913
 C         3.304352         0.105843        -0.442894
 C         3.820453        -0.039023         0.965678
 C         2.395069         0.354878         1.272322
 O         1.969696         0.720621         2.512249
 C         2.158565         1.079793        -0.014020
 O         1.834400         2.432817        -0.244325
 H        -0.707720        -0.261962         1.140631
 H        -0.582688         0.246112        -0.610437
 H        -0.311640        -1.526140        -0.008996
 H         2.640656        -1.996140        -0.411524
 H         1.887633        -0.905320        -1.738565
 H         3.948289         0.324780        -1.323062
 H         4.218134        -1.003648         1.260423
 H         4.490288         0.728868         1.220837
 H         2.408074         1.554986         2.763168
 H         1.169530         2.477913        -0.953535
