19
Iteration:  4883
 C        -0.166603         0.136509         0.207006
 C         1.353945         0.052819        -0.002600
 C         2.073402        -0.037072        -1.359883
 C         3.288837         0.723911        -0.607311
 C         3.723414        -0.368575         0.405415
 C         2.464835        -0.152134         1.134244
 O         2.145918        -0.607244         2.359870
 C         2.208194         1.199638         0.492454
 O         1.887136         2.405852         0.887574
 H        -0.317567         1.051960         0.777942
 H        -0.776883         0.218230        -0.720703
 H        -0.573971        -0.696740         0.797573
 H         2.380012        -0.979302        -1.752337
 H         1.517091         0.331981        -2.231421
 H         3.975042         1.327572        -1.138875
 H         3.882217        -1.417412         0.059646
 H         4.550875        -0.121575         1.000372
 H         1.665582        -1.424152         2.272252
 H         2.027608         3.208178         0.351996
