19
Iteration:  1569charge 0 multiplicity 1
 C         0.006220        -0.465889         0.437520
 C         1.453974        -0.184671         0.080526
 C         2.379593        -1.025240        -0.759089
 C         3.400393         0.089144        -0.475953
 C         3.735619        -0.069409         0.981364
 C         2.321390         0.420930         1.326801
 O         1.753177         0.958579         2.488744
 C         2.222064         1.095062        -0.078527
 O         1.713553         2.328872        -0.404629
 H        -0.366880         0.404014         0.997836
 H        -0.548814        -0.696761        -0.430339
 H        -0.047543        -1.235711         1.179835
 H         2.605672        -1.950422        -0.194099
 H         2.105973        -1.317567        -1.809029
 H         4.182007         0.387337        -1.315588
 H         3.977311        -1.128280         1.231998
 H         4.575040         0.526145         1.146016
 H         1.633614         0.317160         3.233892
 H         2.372461         2.759648        -0.973602
