19
Iteration:  1338charge 0 multiplicity 1
 C        -0.027943        -0.502149         0.118407
 C         1.413054        -0.216956         0.211517
 C         2.323025        -0.906491        -0.827866
 C         3.400802         0.191203        -0.471875
 C         3.786457        -0.144986         1.057146
 C         2.323352         0.359728         1.410672
 O         1.852546         0.958285         2.614466
 C         2.224805         1.055627         0.078499
 O         1.833783         2.269226        -0.498841
 H        -0.657983         0.426818         0.233697
 H        -0.275984        -0.969900        -0.832328
 H        -0.424057        -1.193230         0.910523
 H         2.467706        -2.016141        -0.675339
 H         1.993688        -0.795677        -1.879191
 H         4.042914         0.571732        -1.200702
 H         4.141679        -1.179827         1.240141
 H         4.550040         0.640418         1.354952
 H         0.854082         1.050940         2.576863
 H         1.213041         2.767312         0.077214
