19
Iteration:   920charge 0 multiplicity 1
 C        -0.082873        -0.467452         0.207628
 C         1.417589        -0.233815         0.131913
 C         2.362128        -0.992460        -0.826681
 C         3.417557         0.078529        -0.388263
 C         3.667950        -0.160222         1.124938
 C         2.333006         0.501208         1.270504
 O         1.785180         0.866853         2.455662
 C         2.212693         1.106427        -0.054672
 O         1.827551         2.352222        -0.356005
 H        -0.452787        -0.048413         1.129423
 H        -0.584652         0.056798        -0.606794
 H        -0.382719        -1.512259         0.113331
 H         2.649252        -2.078133        -0.644390
 H         2.101971        -0.839725        -1.955121
 H         4.190357         0.265832        -1.088211
 H         3.691119        -1.090067         1.644709
 H         4.415387         0.479648         1.538840
 H         2.508965         1.239653         3.048204
 H         2.312770         3.007815         0.203565
