19
Iteration:  2265charge 0 multiplicity 1
 C        -0.131972        -0.398304         0.457042
 C         1.413835        -0.280912         0.160358
 C         2.393347        -1.061021        -0.768281
 C         3.434104         0.076409        -0.518456
 C         3.764595        -0.124138         1.046971
 C         2.416561         0.477167         1.232050
 O         1.877659         1.058381         2.382181
 C         2.180247         0.969977        -0.122196
 O         1.724268         2.297431        -0.232238
 H        -0.303330        -0.236020         1.499001
 H        -0.751678         0.319022        -0.080783
 H        -0.504082        -1.397966         0.257816
 H         2.715211        -2.032808        -0.349165
 H         2.062584        -1.302733        -1.757739
 H         4.297319         0.472516        -1.041298
 H         4.031590        -1.243603         1.071496
 H         4.436501         0.586466         1.381637
 H         1.901590         2.018927         2.242859
 H         1.035470         2.188797        -0.902090
