19
Iteration:  3182charge 0 multiplicity 1
 C        -0.057406        -0.291541         0.499162
 C         1.375512        -0.181150         0.118443
 C         2.223087        -0.818449        -0.948551
 C         3.375078         0.243340        -0.673566
 C         3.851735        -0.177649         0.780152
 C         2.403446         0.171396         1.225184
 O         1.857512         0.602156         2.404279
 C         2.174873         1.055578         0.028184
 O         1.831642         2.434317         0.132678
 H        -0.696842         0.588114         0.046349
 H        -0.614715        -1.239567         0.164109
 H        -0.231830        -0.394912         1.580225
 H         2.635464        -1.872573        -0.949552
 H         1.791030        -0.755859        -1.964142
 H         4.133346         0.470023        -1.405903
 H         4.401214        -1.149883         0.826533
 H         4.573264         0.505674         1.175613
 H         2.030898         1.564748         2.495871
 H         0.997001         2.646374        -0.327283
