19
Iteration:  4200charge 0 multiplicity 1
 C        -0.090630        -0.209760         0.395957
 C         1.361634         0.001344        -0.002390
 C         2.173678        -0.335515        -1.278652
 C         3.305216         0.497571        -0.642600
 C         3.657062        -0.323842         0.662407
 C         2.303094         0.035782         1.210401
 O         2.036046        -0.221862         2.503211
 C         2.243966         1.272490         0.306594
 O         1.885481         2.593284         0.318770
 H        -0.580062         0.775988         0.110338
 H        -0.599137        -0.873789        -0.336282
 H        -0.245521        -0.544080         1.439363
 H         2.589944        -1.357676        -1.475135
 H         1.718049         0.033827        -2.221404
 H         4.102542         0.915305        -1.373049
 H         3.781156        -1.333748         0.296289
 H         4.487429         0.136358         1.379441
 H         2.274388        -1.107647         2.861692
 H         2.476247         3.114262         0.932123
