19
Iteration:  1184charge 0 multiplicity 1
 C         0.026825        -0.647213         0.178002
 C         1.442486        -0.308299         0.211231
 C         2.364269        -0.922392        -0.946943
 C         3.351698         0.110737        -0.403661
 C         3.596392        -0.202914         1.141861
 C         2.208725         0.462879         1.332344
 O         1.880566         0.990897         2.625553
 C         2.279651         1.153814        -0.025652
 O         1.898666         2.407240        -0.511598
 H        -0.512042        -0.249072         1.053693
 H        -0.438487        -0.290968        -0.764684
 H        -0.161728        -1.770743         0.261370
 H         2.650339        -1.895184        -0.864404
 H         1.862531        -0.732915        -1.939552
 H         4.314694         0.544224        -0.903931
 H         3.601415        -1.298453         1.482196
 H         4.306127         0.353548         1.859683
 H         0.936559         1.164175         2.477794
 H         1.938544         3.025890         0.234478
