19
Iteration:  3925
 C        -0.182474        -0.122441         0.223602
 C         1.311461         0.014383        -0.004865
 C         2.226879        -0.594883        -1.154969
 C         3.264853         0.423315        -0.671673
 C         3.788709        -0.359674         0.692168
 C         2.534096         0.148929         1.234240
 O         2.116713         0.144887         2.517699
 C         2.252305         1.188501         0.206218
 O         1.720073         2.406560         0.417007
 H        -0.658119        -0.056903         1.255869
 H        -0.684233         0.587205        -0.510618
 H        -0.449406        -1.068727        -0.214468
 H         2.458887        -1.679126        -1.003661
 H         1.639893        -0.463945        -2.088959
 H         3.912769         0.973685        -1.289785
 H         3.989126        -1.408123         0.499695
 H         4.714303         0.282722         1.147728
 H         1.238526        -0.316282         2.521212
 H         2.306997         2.909852         1.020321
