19
Iteration:  4669charge 0 multiplicity 1
 C        -0.167061         0.229847         0.193504
 C         1.332953        -0.002061        -0.079340
 C         2.117910        -0.113619        -1.348592
 C         3.323829         0.611560        -0.587921
 C         3.769628        -0.386769         0.448883
 C         2.419038        -0.151068         1.151577
 O         2.151759        -0.449402         2.479216
 C         2.285294         1.146829         0.412108
 O         1.724360         2.440024         0.719039
 H        -0.410088         1.300364         0.078997
 H        -0.842106        -0.329352        -0.447925
 H        -0.278037        -0.029271         1.256335
 H         2.392872        -1.128529        -1.606905
 H         1.740714         0.268684        -2.323754
 H         3.925577         1.255514        -1.153331
 H         3.975070        -1.386577         0.128797
 H         4.567216        -0.083512         1.164540
 H         2.165401        -1.403000         2.401743
 H         1.969036         2.612561         1.641385
