19
Iteration:  2431
 C        -0.122613        -0.254625         0.177115
 C         1.365071        -0.296523         0.188839
 C         2.312207        -1.082511        -0.750386
 C         3.421615         0.112928        -0.522514
 C         3.806367        -0.009587         1.033396
 C         2.440103         0.416329         1.352834
 O         2.037777         0.811184         2.572081
 C         2.127658         0.997521        -0.018955
 O         1.642138         2.297249        -0.335261
 H        -0.232199         0.402430        -0.653703
 H        -0.578685        -1.190348        -0.026815
 H        -0.471882         0.265405         1.119961
 H         2.826588        -2.000435        -0.406949
 H         2.017643        -1.351600        -1.755331
 H         4.209220         0.504699        -1.224136
 H         3.994045        -0.990850         1.618196
 H         4.477702         0.813261         1.236473
 H         1.762466         1.752061         2.501436
 H         1.111945         2.421295        -1.142760
