19
Iteration:  2155charge 0 multiplicity 1
 C        -0.066772        -0.474710         0.543288
 C         1.361495        -0.120742         0.264945
 C         2.234514        -0.980074        -0.647340
 C         3.362632         0.075932        -0.498650
 C         3.779154         0.037204         0.968653
 C         2.400919         0.559295         1.251694
 O         1.807909         0.569974         2.629511
 C         2.170694         1.147272        -0.195189
 O         1.907285         2.394517        -0.651001
 H        -0.813277         0.345195         0.583078
 H        -0.341549        -1.178670        -0.264345
 H        -0.129837        -1.025247         1.474098
 H         2.370031        -2.030275        -0.332307
 H         1.776832        -1.024159        -1.629350
 H         4.317904         0.336526        -1.087009
 H         4.051321        -0.960521         1.499022
 H         4.600820         0.796774         0.873930
 H         2.527771         1.109954         3.059413
 H         1.481031         2.243720        -1.515739
