19
Iteration:  1033
 C        -0.070541        -0.529534         0.265808
 C         1.376411        -0.086717         0.077744
 C         2.308629        -0.846072        -0.817377
 C         3.422949         0.110792        -0.326317
 C         3.655416        -0.226185         1.105968
 C         2.309733         0.426426         1.374141
 O         1.821540         0.696614         2.606085
 C         2.222664         1.153222         0.026774
 O         1.967452         2.464249        -0.564927
 H        -0.654748         0.125610         0.914159
 H        -0.663965        -0.662978        -0.624971
 H        -0.000192        -1.519054         0.709113
 H         2.637052        -1.917015        -0.491424
 H         2.088358        -0.721403        -1.898080
 H         4.254469         0.420689        -1.098909
 H         3.597499        -1.271909         1.265607
 H         4.544656         0.190442         1.632268
 H         1.323123         1.504848         2.514815
 H         1.750433         2.233589        -1.486690
