19
Iteration:   473charge 0 multiplicity 1
 C        -0.139877        -0.656939         0.249908
 C         1.319714        -0.106255         0.022260
 C         2.311711        -0.939237        -0.922273
 C         3.353407         0.084528        -0.387471
 C         3.650134        -0.148497         1.141367
 C         2.330448         0.488490         1.360855
 O         1.747035         0.806493         2.585401
 C         2.252631         1.135654         0.050381
 O         2.182941         2.430971        -0.457783
 H        -0.860630        -0.334311         1.063672
 H        -0.726759        -0.460095        -0.707323
 H        -0.013667        -1.780677         0.243634
 H         2.489811        -2.020823        -0.559456
 H         1.980029        -0.899882        -1.932127
 H         4.197057         0.299378        -1.109783
 H         3.747692        -1.141643         1.555133
 H         4.538596         0.519150         1.290534
 H         1.492284         1.729330         2.485429
 H         1.547140         2.974636         0.018259
