19
Iteration:  1150charge 0 multiplicity 1
 C        -0.132614        -0.470291         0.178223
 C         1.374285        -0.149923         0.054133
 C         2.351724        -0.964985        -0.740956
 C         3.493929         0.113015        -0.361115
 C         3.846494        -0.057887         1.096295
 C         2.335499         0.394577         1.267648
 O         1.708469         0.929441         2.443917
 C         2.247854         1.024442        -0.039848
 O         1.805514         2.321490        -0.302109
 H        -0.669994         0.364448         0.658961
 H        -0.621565        -0.541368        -0.828333
 H        -0.317976        -1.472028         0.691621
 H         2.584229        -1.915837        -0.405782
 H         2.080847        -1.079309        -1.836396
 H         4.212597         0.323705        -1.243867
 H         4.184097        -1.138277         1.370981
 H         4.415460         0.782877         1.597136
 H         1.289934         0.161874         2.943001
 H         2.605937         2.813355        -0.101940
