19
Iteration:  3517
 C        -0.046178        -0.236495         0.160596
 C         1.365161        -0.112644         0.095903
 C         2.183164        -0.709092        -1.023430
 C         3.284603         0.273724        -0.660918
 C         3.782109        -0.249563         0.814986
 C         2.370328         0.186921         1.339134
 O         2.082163         0.441126         2.695412
 C         2.131400         1.138510         0.073194
 O         1.760216         2.436671         0.076621
 H        -0.465581         0.076214         1.117450
 H        -0.449962         0.439014        -0.670525
 H        -0.361928        -1.301805         0.033254
 H         2.538371        -1.739113        -1.133898
 H         1.741438        -0.383186        -1.992579
 H         4.100734         0.634262        -1.267501
 H         4.084492        -1.281099         0.977308
 H         4.482354         0.525388         1.261250
 H         2.798347        -0.064819         3.154862
 H         1.404092         2.522313        -0.833992
