19
Iteration:  1083charge 0 multiplicity 1
 C        -0.119987        -0.168838         0.296609
 C         1.417071        -0.169914         0.048682
 C         2.396039        -0.953043        -0.784732
 C         3.484202         0.116164        -0.368330
 C         3.790183        -0.034363         1.162711
 C         2.312429         0.399404         1.347298
 O         1.672625         0.535357         2.519370
 C         2.228152         1.078035         0.056683
 O         1.855433         2.276005        -0.615049
 H        -0.458038         0.879726         0.458547
 H        -0.610867        -0.559761        -0.654223
 H        -0.559228        -0.882282         1.057046
 H         2.664294        -1.940155        -0.613382
 H         2.271943        -0.852515        -1.903459
 H         4.299576         0.299585        -1.030527
 H         4.401283        -0.974995         1.552440
 H         4.371395         0.895342         1.319822
 H         2.201111         1.091774         3.114395
 H         1.066902         2.809982        -0.314487
