19
Iteration:   468
 C        -0.157618        -0.639239         0.221842
 C         1.306860        -0.104128         0.027262
 C         2.308931        -0.955768        -0.894633
 C         3.347289         0.058364        -0.381704
 C         3.662647        -0.145345         1.097689
 C         2.333544         0.529860         1.424237
 O         1.760583         0.782058         2.580744
 C         2.273971         1.140133         0.075062
 O         2.164620         2.445877        -0.479182
 H        -0.835735        -0.406040         1.025128
 H        -0.518507        -0.296331        -0.747394
 H        -0.019825        -1.704729         0.249820
 H         2.509126        -1.962995        -0.480494
 H         2.063355        -0.989655        -2.032667
 H         4.197113         0.270640        -1.005355
 H         3.851351        -1.204374         1.426310
 H         4.550934         0.455848         1.224483
 H         1.336319         1.697554         2.509200
 H         1.363489         2.864990        -0.059593
