19
Iteration:  4545charge 0 multiplicity 1
 C        -0.117551        -0.373968         0.292233
 C         1.283133         0.094386        -0.047205
 C         2.103797        -0.126404        -1.410421
 C         3.253812         0.522108        -0.752136
 C         3.736905        -0.338603         0.500968
 C         2.352946        -0.064060         1.123603
 O         1.898197        -0.194163         2.473679
 C         2.316126         1.250038         0.338175
 O         2.148995         2.557891         0.830904
 H         0.017382        -1.460983         0.363952
 H        -0.554220         0.050707         1.202645
 H        -0.790345        -0.089598        -0.519224
 H         1.975578        -1.132056        -1.727670
 H         1.791848         0.591418        -2.188019
 H         3.966824         1.231447        -1.317786
 H         4.137740        -1.347045         0.168261
 H         4.498368         0.152206         1.061316
 H         1.236865        -0.892123         2.330221
 H         2.026404         2.473978         1.806250
