19
Iteration:  2387
 C        -0.004757        -0.248308         0.471543
 C         1.455862        -0.186396         0.194372
 C         2.310717        -0.955337        -0.825313
 C         3.404786         0.065626        -0.503746
 C         3.832688        -0.116037         1.081381
 C         2.403761         0.446555         1.286574
 O         1.843210         0.786645         2.560368
 C         2.242735         1.101178        -0.022248
 O         1.693345         2.273722        -0.535296
 H        -0.560407         0.642028         0.634997
 H        -0.451202        -0.776843        -0.336740
 H        -0.128171        -1.013769         1.313735
 H         2.394520        -2.053011        -0.589437
 H         1.849388        -1.017715        -1.800223
 H         4.215970         0.318305        -1.206197
 H         4.087921        -1.256916         1.294458
 H         4.506926         0.769503         1.342541
 H         0.955338         1.190330         2.442522
 H         1.002353         1.920760        -1.116321
