19
Iteration:  2215charge 0 multiplicity 1
 C        -0.053553        -0.235797         0.450351
 C         1.484872        -0.232731         0.226873
 C         2.295950        -1.051474        -0.701354
 C         3.407470         0.068273        -0.563488
 C         3.859379         0.030227         0.988084
 C         2.405214         0.458117         1.264420
 O         1.784432         0.757056         2.551154
 C         2.193867         1.048626        -0.053020
 O         1.721227         2.247474        -0.484179
 H        -0.431280         0.505411         1.193790
 H        -0.535925        -0.037427        -0.537291
 H        -0.427168        -1.267946         0.799988
 H         2.524353        -2.104648        -0.441503
 H         1.847630        -1.054153        -1.738278
 H         4.138952         0.211195        -1.340469
 H         3.911339        -0.899932         1.539780
 H         4.759667         0.803617         1.117686
 H         2.166554         1.639575         2.741122
 H         1.035621         2.075947        -1.178215
