19
Iteration:  4007charge 0 multiplicity 1
 C        -0.015736        -0.278482         0.459135
 C         1.382875         0.034720        -0.037317
 C         2.201874        -0.408299        -1.267087
 C         3.290534         0.409144        -0.685340
 C         3.774263        -0.375482         0.656402
 C         2.451960         0.062845         1.235562
 O         1.837017        -0.037133         2.562588
 C         2.177715         1.241475         0.220420
 O         1.840341         2.641990         0.248682
 H        -0.705257         0.262812        -0.174931
 H        -0.323941        -1.313149         0.489358
 H        -0.056350         0.120741         1.513810
 H         2.423284        -1.461112        -1.192048
 H         1.790351        -0.196800        -2.249343
 H         4.173237         0.886147        -1.237452
 H         3.925140        -1.497440         0.690123
 H         4.630786         0.042501         1.080292
 H         2.026833        -0.969883         2.809072
 H         2.309106         3.184225         0.887934
