19
Iteration:   119charge 0 multiplicity 1
 C        -0.083629        -0.239237         0.330774
 C         1.435398        -0.189189         0.138018
 C         2.328903        -0.955081        -0.821344
 C         3.456393         0.069747        -0.434094
 C         3.791654        -0.145816         1.032968
 C         2.344244         0.377282         1.307157
 O         1.619819         0.832945         2.446235
 C         2.322337         1.039648         0.077708
 O         1.841279         2.324945        -0.405957
 H        -0.316849         0.490167         1.101590
 H        -0.666889         0.031626        -0.551283
 H        -0.319200        -1.204325         0.813532
 H         2.452788        -2.080892        -0.789017
 H         2.089376        -0.589725        -1.771061
 H         4.087827         0.334439        -1.250975
 H         3.815003        -1.212265         1.324841
 H         4.549905         0.544425         1.343236
 H         1.418479         0.142268         3.155671
 H         2.561617         2.505499        -1.026366
