19
Iteration:  3115charge 0 multiplicity 1
 C        -0.188216        -0.411841         0.342862
 C         1.369087        -0.181139         0.159076
 C         2.244421        -0.775985        -0.927755
 C         3.345265         0.307658        -0.562186
 C         3.737986        -0.150134         0.846664
 C         2.335588         0.286778         1.285760
 O         2.058009         0.391980         2.663623
 C         2.175216         1.185927         0.053616
 O         1.770422         2.491252        -0.300771
 H        -0.488560         0.492886         0.948071
 H        -0.748693        -0.588744        -0.653176
 H        -0.174786        -1.308829         0.943640
 H         2.400752        -1.898435        -0.833748
 H         1.832327        -0.662374        -1.955445
 H         4.141211         0.333926        -1.286625
 H         4.040890        -1.157255         1.124228
 H         4.380395         0.605978         1.157936
 H         2.820610         0.742483         3.138111
 H         2.500202         3.139899        -0.191711
