19
Iteration:  3402
 C        -0.108497        -0.493074         0.216112
 C         1.328252        -0.090424         0.199938
 C         2.195794        -0.807391        -1.009286
 C         3.210432         0.305205        -0.655480
 C         3.756541        -0.128076         0.848503
 C         2.394795         0.277801         1.304013
 O         2.146180         0.477155         2.666851
 C         2.086164         1.180259         0.096897
 O         1.971229         2.483225        -0.040155
 H        -0.248063        -1.420404        -0.459670
 H        -0.578933        -0.722874         1.130269
 H        -0.653351         0.246188        -0.321570
 H         2.603481        -1.819726        -0.999980
 H         1.565158        -0.699789        -1.897693
 H         3.979072         0.863076        -1.242140
 H         3.881889        -1.255810         0.971397
 H         4.479693         0.582669         1.167112
 H         1.331219         0.134593         3.114354
 H         1.614433         2.769139        -0.907370
