19
Iteration:  4987
 C        -0.125957        -0.247695         0.295090
 C         1.278155         0.105293        -0.033979
 C         2.062477         0.155166        -1.364491
 C         3.318529         0.662153        -0.693023
 C         3.675237        -0.444745         0.386509
 C         2.388424        -0.129007         0.980042
 O         1.961216        -0.345164         2.255640
 C         2.203110         1.248731         0.398800
 O         2.135213         2.417706         1.113465
 H        -0.439760        -0.944642        -0.506510
 H        -0.224376        -0.885274         1.183069
 H        -0.848117         0.591349         0.338685
 H         2.143559        -0.823928        -1.900439
 H         1.673861         0.927163        -1.954257
 H         4.207859         1.166141        -1.132919
 H         3.735292        -1.418484        -0.114658
 H         4.613174         0.000436         0.861025
 H         1.679509        -1.278244         2.309865
 H         2.523359         2.261139         1.980720
