19
Iteration:   415charge 0 multiplicity 1
 C        -0.108691        -0.045601         0.157467
 C         1.425283        -0.307390         0.096622
 C         2.460676        -1.032026        -0.745809
 C         3.484885         0.043061        -0.381308
 C         3.702469        -0.029037         1.113827
 C         2.233096         0.367314         1.297301
 O         1.859525         0.658906         2.601492
 C         2.241737         1.103697        -0.000251
 O         1.742245         2.296641        -0.432769
 H        -0.151016         0.664693         1.036832
 H        -0.466085         0.491588        -0.763673
 H        -0.738051        -0.896493         0.510402
 H         2.663197        -2.191856        -0.591391
 H         2.149467        -0.942916        -1.835507
 H         4.325791         0.158759        -1.086009
 H         4.093461        -0.930540         1.633405
 H         4.405110         0.756086         1.355275
 H         0.889814         0.897913         2.494750
 H         2.124472         2.465840        -1.330565
