19
Iteration:   714charge 0 multiplicity 1
 C        -0.034667        -0.664516         0.216769
 C         1.338481        -0.156999         0.153373
 C         2.274780        -1.050365        -0.677604
 C         3.436059         0.004948        -0.537570
 C         3.747338        -0.084238         0.939952
 C         2.250573         0.325796         1.265458
 O         1.721086         1.069893         2.396375
 C         2.233327         1.140251        -0.010658
 O         2.050703         2.485453        -0.212589
 H        -0.438796        -0.340439         1.192289
 H        -0.649553        -0.157169        -0.561346
 H        -0.146918        -1.777614         0.108833
 H         2.561091        -2.037675        -0.301923
 H         2.100641        -1.153463        -1.683725
 H         4.227439         0.134547        -1.212465
 H         4.202288        -0.986863         1.414345
 H         4.383789         0.854225         1.091724
 H         0.927444         0.617734         2.715378
 H         1.736497         2.771546         0.663093
