19
Iteration:  3307charge 0 multiplicity 1
 C        -0.052637        -0.194169         0.512676
 C         1.366648        -0.168651         0.073819
 C         2.264682        -0.757129        -0.927777
 C         3.338669         0.270969        -0.598539
 C         3.884347        -0.133167         0.819252
 C         2.407874         0.209627         1.259833
 O         1.872431         0.409483         2.503093
 C         2.170271         1.095297         0.064700
 O         1.776977         2.435184        -0.198888
 H        -0.780232        -0.784516        -0.102640
 H        -0.114593        -0.461501         1.570176
 H        -0.454426         0.883921         0.384238
 H         2.545047        -1.855220        -0.891418
 H         1.784324        -0.572733        -1.919647
 H         3.982535         0.651701        -1.427689
 H         4.097355        -1.162788         0.770993
 H         4.548830         0.592522         1.270293
 H         1.972568        -0.475287         2.894184
 H         1.668785         2.762600         0.703098
