19
Iteration:  3195
 C        -0.062516        -0.336090         0.540098
 C         1.357532        -0.207690         0.097730
 C         2.274295        -0.801846        -1.031718
 C         3.323469         0.203943        -0.584416
 C         3.787830        -0.139586         0.777444
 C         2.398844         0.237433         1.153582
 O         1.924789         0.562927         2.452092
 C         2.222514         1.120309        -0.004468
 O         1.834782         2.384708         0.147075
 H        -0.695378         0.559722         0.043363
 H        -0.497540        -1.266811         0.239828
 H        -0.018654        -0.010641         1.619505
 H         2.347785        -1.895012        -0.708577
 H         1.877130        -0.500493        -2.007087
 H         3.969689         0.604675        -1.359466
 H         4.041169        -1.191457         1.065602
 H         4.464097         0.524370         1.139864
 H         1.534008         1.452461         2.308065
 H         1.407350         2.602390        -0.724468
