19
Iteration:  2181
 C        -0.114391        -0.359279         0.463137
 C         1.349201        -0.203256         0.207576
 C         2.328115        -1.032939        -0.629792
 C         3.310920         0.160564        -0.560388
 C         3.714954         0.120503         1.006606
 C         2.308703         0.372995         1.264462
 O         1.956864         0.576930         2.705141
 C         2.101622         1.134424        -0.071869
 O         1.948615         2.373465        -0.728238
 H        -0.554114         0.610188         0.721220
 H        -0.539885        -0.785117        -0.463806
 H        -0.236564        -1.143560         1.323925
 H         2.605540        -1.943099        -0.059493
 H         1.957107        -1.300568        -1.640807
 H         4.024771         0.529519        -1.248362
 H         4.027239        -0.790601         1.430818
 H         4.588027         0.827027         1.328392
 H         2.550772         1.370169         2.784287
 H         1.299413         2.072770        -1.398503
