19
Iteration:  1846charge 0 multiplicity 1
 C         0.002165        -0.405153         0.541722
 C         1.391119        -0.292091         0.214874
 C         2.242971        -0.971156        -0.793256
 C         3.440960         0.025879        -0.521509
 C         3.799854        -0.032754         0.953662
 C         2.323468         0.351659         1.209602
 O         1.861665         0.938835         2.435214
 C         2.211906         1.011432        -0.154028
 O         1.746027         2.349652        -0.232687
 H        -0.311410         0.545611         0.863666
 H        -0.507601        -0.766875        -0.356837
 H        -0.182906        -1.043064         1.371658
 H         2.524280        -1.999999        -0.532811
 H         2.070977        -0.974129        -1.856629
 H         4.062767         0.107341        -1.340144
 H         4.260562        -0.966023         1.323772
 H         4.353148         0.843892         1.257658
 H         1.512101         1.836345         2.373080
 H         1.742119         2.516938        -1.182357
