19
Iteration:  3474charge 0 multiplicity 1
 C        -0.006542        -0.221294         0.520446
 C         1.415907        -0.170950         0.092557
 C         2.301606        -0.697258        -1.067944
 C         3.403109         0.298545        -0.600512
 C         3.768095        -0.219542         0.784603
 C         2.433448         0.189891         1.286643
 O         1.819205         0.357567         2.566831
 C         2.160589         1.163968         0.061465
 O         1.821283         2.533819        -0.096624
 H         0.006129        -0.848544         1.410625
 H        -0.575768         0.687434         0.925219
 H        -0.553742        -0.886851        -0.181984
 H         2.457460        -1.806196        -1.034044
 H         1.799450        -0.448871        -2.025811
 H         4.115359         0.614077        -1.342345
 H         3.913710        -1.268716         0.741114
 H         4.628809         0.405401         1.247388
 H         1.491750        -0.514866         2.900217
 H         0.960432         2.658962        -0.513973
