19
Iteration:  2722charge 0 multiplicity 1
 C        -0.061298        -0.752980         0.465826
 C         1.368984        -0.135524         0.228351
 C         2.211418        -0.873148        -0.795945
 C         3.247674         0.230457        -0.648352
 C         3.804467        -0.107560         0.917248
 C         2.349974         0.374338         1.285373
 O         1.661408         0.644434         2.517443
 C         2.222702         1.192437         0.000749
 O         2.159758         2.548435        -0.401542
 H        -0.303250        -1.628453        -0.229999
 H        -0.137325        -1.012123         1.578229
 H        -0.717956         0.082909         0.267054
 H         2.574237        -1.897249        -0.537171
 H         1.658743        -0.850141        -1.754600
 H         3.989154         0.535239        -1.409405
 H         3.978261        -1.076847         1.179725
 H         4.694401         0.531723         1.292012
 H         2.314424         1.109528         3.090199
 H         1.284539         2.960928        -0.205971
