19
Iteration:  3460charge 0 multiplicity 1
 C         0.069595        -0.362613         0.582619
 C         1.432565        -0.054502         0.031996
 C         2.223235        -0.781623        -1.053190
 C         3.280521         0.330389        -0.595893
 C         3.770064        -0.167065         0.807567
 C         2.338039         0.304314         1.234294
 O         1.830300         0.309005         2.528940
 C         2.233951         1.168005         0.115830
 O         1.899656         2.489902        -0.102732
 H        -0.094731        -1.118885         1.358707
 H        -0.155230         0.640098         1.012572
 H        -0.714214        -0.313829        -0.232162
 H         2.591732        -1.804206        -0.965853
 H         1.887254        -0.545682        -2.057615
 H         4.059850         0.814336        -1.198252
 H         4.123342        -1.252856         0.935453
 H         4.576612         0.360397         1.209889
 H         1.126881        -0.345426         2.571751
 H         0.950077         2.511158        -0.357397
