19
Iteration:  3365charge 0 multiplicity 1
 C        -0.188151        -0.342325         0.288437
 C         1.387908        -0.147496         0.105885
 C         2.250347        -0.776879        -1.055240
 C         3.370928         0.185033        -0.616898
 C         3.782113        -0.232960         0.841215
 C         2.419740         0.215922         1.283771
 O         2.103609         0.661482         2.500709
 C         2.222330         1.093947         0.099813
 O         1.634973         2.456637         0.108967
 H        -0.361100        -1.066957        -0.456542
 H        -0.710410        -0.684959         1.269525
 H        -0.676692         0.580028        -0.022594
 H         2.541936        -1.856442        -0.985105
 H         1.713677        -0.516626        -2.004754
 H         4.166482         0.631089        -1.167730
 H         4.244259        -1.154080         1.024201
 H         4.675089         0.319089         1.390412
 H         1.755994        -0.147145         2.966178
 H         2.089846         3.037045        -0.548650
