19
Iteration:  4557
 C        -0.105190        -0.380555         0.309497
 C         1.365360         0.044913        -0.067812
 C         1.999936        -0.108566        -1.358630
 C         3.344926         0.593287        -0.691745
 C         3.754342        -0.416920         0.498514
 C         2.423417        -0.020205         1.078238
 O         1.877993        -0.240962         2.398885
 C         2.242163         1.275772         0.332795
 O         2.133102         2.596665         0.819582
 H        -0.245866        -1.341069         0.862500
 H        -0.392676         0.352546         1.033584
 H        -0.856645        -0.481838        -0.456022
 H         2.305570        -0.984428        -1.841813
 H         1.393478         0.526074        -2.030158
 H         4.141710         1.060398        -1.365725
 H         3.860526        -1.526404         0.411546
 H         4.537287         0.002650         1.058404
 H         0.985061        -0.704460         2.407562
 H         2.009572         2.513125         1.803995
