19
Iteration:  1596charge 0 multiplicity 1
 C        -0.094919        -0.649495         0.414515
 C         1.391867        -0.170982         0.251651
 C         2.294428        -0.888366        -0.748956
 C         3.373575         0.113004        -0.452305
 C         3.716719        -0.054892         1.076047
 C         2.371090         0.492346         1.303227
 O         1.852993         0.834245         2.510541
 C         2.160977         1.123809        -0.089730
 O         1.875561         2.368892        -0.663643
 H        -0.812512         0.144057         0.631259
 H        -0.258605        -1.223749        -0.551231
 H        -0.148344        -1.282494         1.350502
 H         2.531928        -1.950818        -0.508999
 H         1.938037        -0.821728        -1.765366
 H         3.942037         0.417340        -1.240533
 H         3.794350        -1.073573         1.421384
 H         4.646277         0.574624         1.313493
 H         2.156264         0.352377         3.299844
 H         2.183936         3.010767         0.000616
