19
Iteration:  2088
 C        -0.072971        -0.436893         0.552045
 C         1.405228        -0.306161         0.148585
 C         2.326053        -1.060256        -0.771811
 C         3.413051        -0.009682        -0.508278
 C         3.770191        -0.056155         0.980654
 C         2.349843         0.388879         1.217029
 O         1.899981         1.034330         2.304994
 C         2.227194         1.011591        -0.166078
 O         1.730720         2.378452        -0.120191
 H        -0.407043         0.590746         0.830653
 H        -0.696645        -0.849658        -0.267160
 H        -0.136692        -1.041766         1.419297
 H         2.718886        -2.041604        -0.461016
 H         1.969792        -1.089522        -1.815806
 H         4.246152         0.498117        -1.096680
 H         4.156235        -1.032009         1.353743
 H         4.573512         0.638208         1.126578
 H         1.473733         1.850964         2.024304
 H         1.187639         2.468357        -0.924381
