19
Iteration:  3644
 C        -0.068429        -0.401928         0.450395
 C         1.373517        -0.036775         0.027756
 C         2.203857        -0.621667        -1.133436
 C         3.338542         0.324921        -0.542998
 C         3.713605        -0.281736         0.798244
 C         2.408535         0.268547         1.246175
 O         1.976608         0.214946         2.586129
 C         2.191720         1.254492         0.099729
 O         1.903379         2.584947         0.050662
 H        -0.233143        -1.443915        -0.031139
 H        -0.254299        -0.579186         1.517533
 H        -0.864868         0.364775         0.115581
 H         2.397796        -1.742431        -1.278006
 H         1.752991        -0.154090        -2.045160
 H         4.092513         0.643126        -1.281836
 H         3.904321        -1.395069         0.797607
 H         4.553055         0.204604         1.199916
 H         1.510877        -0.620257         2.739328
 H         1.334645         2.830291        -0.685957
