19
Iteration:  4164
 C        -0.066998        -0.231409         0.411077
 C         1.354938         0.020705        -0.010966
 C         2.142169        -0.292703        -1.319677
 C         3.369376         0.450615        -0.644051
 C         3.829190        -0.399918         0.667678
 C         2.453218         0.016610         1.255245
 O         1.893932        -0.082174         2.459062
 C         2.243192         1.201274         0.377912
 O         1.754639         2.579715         0.305384
 H        -0.191447         0.477317         1.291498
 H        -0.747921         0.111067        -0.420294
 H        -0.449121        -1.187140         0.771292
 H         2.229958        -1.332159        -1.608689
 H         1.712045         0.291426        -2.130659
 H         3.979508         0.809439        -1.423234
 H         4.033737        -1.497813         0.351778
 H         4.803102        -0.074617         1.117531
 H         2.150402        -0.978297         2.786647
 H         2.395863         3.197889         0.771931
