19
Iteration:  3655
 C        -0.080982        -0.393040         0.323526
 C         1.341387        -0.088157         0.088027
 C         2.117390        -0.618400        -1.114779
 C         3.380821         0.368650        -0.658949
 C         3.788369        -0.243952         0.857934
 C         2.418522         0.257481         1.275324
 O         2.019947         0.212791         2.598989
 C         2.139363         1.193375         0.134893
 O         1.937722         2.601322         0.050282
 H        -0.403665        -1.513808         0.164008
 H        -0.180335        -0.106311         1.370566
 H        -0.873800         0.184561        -0.305172
 H         2.091326        -1.773502        -1.119839
 H         1.716316        -0.309552        -2.125318
 H         4.094324         0.970221        -1.250363
 H         3.783861        -1.381854         0.893215
 H         4.439896         0.127705         1.557083
 H         1.755857        -0.700301         2.735636
 H         1.210021         2.741201        -0.594748
