19
Iteration:  4151charge 0 multiplicity 1
 C        -0.051747        -0.166746         0.391408
 C         1.418123        -0.055685         0.076759
 C         2.149964        -0.322287        -1.209202
 C         3.318884         0.446817        -0.673894
 C         3.807520        -0.380853         0.583113
 C         2.448755        -0.013979         1.144984
 O         1.904780        -0.025567         2.474200
 C         2.224002         1.235493         0.304525
 O         1.768740         2.528309         0.358991
 H        -0.345414         0.039862         1.424565
 H        -0.623865         0.476310        -0.293773
 H        -0.270906        -1.213610         0.089443
 H         2.326856        -1.316883        -1.611966
 H         1.723703         0.270451        -2.021641
 H         4.060761         0.976960        -1.200748
 H         4.029634        -1.527197         0.629461
 H         4.491302         0.170014         1.150773
 H         1.808469        -0.917321         2.861375
 H         2.433778         3.043057         0.813347
