19
Iteration:  2785
 C        -0.021569        -0.337717         0.430326
 C         1.404100        -0.192321         0.094534
 C         2.357025        -0.960319        -0.885418
 C         3.356645         0.178736        -0.535905
 C         3.764969        -0.104296         0.926318
 C         2.386891         0.269280         1.202299
 O         1.822519         0.746207         2.411948
 C         2.159191         1.067625        -0.020535
 O         1.715896         2.384011        -0.121201
 H        -0.415623        -0.876083         1.253114
 H        -0.540831         0.660233         0.488657
 H        -0.570624        -0.823620        -0.370259
 H         2.629723        -2.026172        -0.740963
 H         2.018769        -0.916299        -1.927560
 H         4.180191         0.495570        -1.173487
 H         3.975543        -1.218989         1.262238
 H         4.544138         0.526471         1.263469
 H         2.600029         1.225369         2.727018
 H         2.264235         2.787326         0.591776
