19
Iteration:  2934
 C         0.003049        -0.445381         0.500799
 C         1.398630        -0.147700         0.069513
 C         2.307830        -0.908547        -0.887462
 C         3.373959         0.225409        -0.617811
 C         3.781653        -0.173527         0.899036
 C         2.342183         0.299150         1.226198
 O         1.790813         0.634557         2.479633
 C         2.138187         1.158064        -0.019169
 O         1.776120         2.455180        -0.167544
 H        -0.593149        -0.643105        -0.421123
 H        -0.177398        -1.286381         1.112289
 H        -0.592938         0.343008         1.044112
 H         2.554372        -1.963565        -0.760629
 H         1.948048        -0.590528        -1.890184
 H         4.188239         0.453765        -1.304459
 H         3.989049        -1.153360         1.082156
 H         4.593904         0.499128         1.346729
 H         2.604089         0.817340         2.984450
 H         2.454616         2.969561         0.324665
