19
Iteration:  4756
 C        -0.177493        -0.432843         0.093323
 C         1.233019         0.128305        -0.012994
 C         2.003374        -0.028644        -1.425386
 C         3.242104         0.589115        -0.627154
 C         3.676633        -0.383316         0.493215
 C         2.335035        -0.066913         1.082183
 O         2.000325        -0.372338         2.417215
 C         2.274134         1.284238         0.459602
 O         2.267555         2.677263         0.919507
 H        -0.116641        -1.313557        -0.599817
 H        -0.389186        -0.743744         1.108438
 H        -1.076711         0.101707        -0.255395
 H         2.189811        -1.087497        -1.730346
 H         1.385809         0.712601        -2.122137
 H         4.015264         1.096307        -1.177194
 H         3.973609        -1.394185         0.181546
 H         4.469710         0.103913         1.142793
 H         1.429657        -1.153009         2.390069
 H         3.001665         2.682087         1.522462
