19
Iteration:  3319
 C        -0.070296        -0.127596         0.518175
 C         1.437429        -0.171155         0.151433
 C         2.284724        -0.869470        -1.038354
 C         3.341909         0.290710        -0.593705
 C         3.865433        -0.206253         0.750017
 C         2.412981         0.213839         1.217244
 O         1.809041         0.453804         2.487612
 C         2.207131         1.156180         0.043141
 O         1.685330         2.394810        -0.087495
 H        -0.561680        -0.900244        -0.065339
 H        -0.223508        -0.404580         1.593091
 H        -0.550602         0.924210         0.469971
 H         2.643215        -1.935759        -0.888780
 H         2.045833        -0.652256        -2.109055
 H         4.117226         0.647243        -1.296909
 H         4.354238        -1.078546         1.015164
 H         4.712679         0.479920         1.149411
 H         1.939461        -0.204611         3.177021
 H         2.049168         3.075871         0.543628
