19
Iteration:  1577charge 0 multiplicity 1
 C         0.012823        -0.525846         0.431302
 C         1.403639        -0.167092         0.084263
 C         2.345399        -1.046396        -0.736288
 C         3.377197         0.143469        -0.504196
 C         3.794094        -0.112300         1.004886
 C         2.331586         0.486824         1.297534
 O         1.751443         0.944385         2.514982
 C         2.199631         1.110601        -0.022775
 O         1.734990         2.349977        -0.484149
 H        -0.540799         0.357254         0.801554
 H        -0.507131        -0.879530        -0.483986
 H        -0.016615        -1.316317         1.213876
 H         2.522533        -2.043479        -0.285873
 H         1.934602        -1.145803        -1.750125
 H         4.282914         0.296169        -1.075463
 H         4.045822        -1.274375         1.133185
 H         4.609697         0.516372         1.404740
 H         1.961461         0.246850         3.203755
 H         2.537583         2.849195        -0.750444
