19
Iteration:  3008
 C        -0.099818        -0.442599         0.253414
 C         1.390271        -0.165266         0.230128
 C         2.237897        -0.901379        -0.851567
 C         3.336518         0.222662        -0.646562
 C         3.809398        -0.105965         0.784822
 C         2.361758         0.215412         1.296978
 O         1.981278         0.645026         2.523639
 C         2.139173         1.094217        -0.047919
 O         1.853626         2.480931         0.041131
 H        -0.325481        -1.458338         0.660569
 H        -0.625838         0.225171         0.910508
 H        -0.643373        -0.404227        -0.648247
 H         2.580482        -1.912792        -0.658706
 H         1.630523        -0.713978        -1.723866
 H         4.009514         0.562580        -1.411083
 H         4.211903        -1.171013         1.032100
 H         4.630584         0.567008         1.221408
 H         2.069245         1.600251         2.620124
 H         1.206912         2.653296        -0.686714
