19
Iteration:  4503
 C        -0.300346        -0.274366         0.098553
 C         1.281081        -0.083436        -0.027257
 C         2.131232        -0.269252        -1.350330
 C         3.255251         0.600183        -0.627579
 C         3.743914        -0.355080         0.472252
 C         2.334193        -0.061292         1.141135
 O         2.082479        -0.123036         2.474966
 C         2.202258         1.305716         0.331141
 O         2.114692         2.552307         0.854646
 H        -0.641107        -0.734833        -0.861619
 H        -0.801514        -0.616078         0.976952
 H        -0.660285         0.748436         0.053041
 H         2.559087        -1.180229        -1.716949
 H         1.779633         0.300499        -2.244600
 H         3.959261         1.121786        -1.362937
 H         4.021309        -1.385105         0.206991
 H         4.480635         0.003852         1.134300
 H         2.456673        -0.989370         2.829355
 H         2.127481         2.472405         1.855131
