19
Iteration:    12
 C        -0.187345        -0.400190         0.235722
 C         1.390493        -0.165911         0.167878
 C         2.369127        -1.042358        -0.785235
 C         3.395304         0.093073        -0.459515
 C         3.784119        -0.077239         1.071541
 C         2.369287         0.385911         1.367471
 O         1.698222         0.876437         2.481330
 C         2.219036         1.068605         0.010492
 O         2.010854         2.389059        -0.448852
 H        -0.799017         0.285184         0.823516
 H        -0.674971        -0.529135        -0.738013
 H        -0.208212        -1.371180         0.715155
 H         2.729206        -2.087731        -0.738544
 H         1.872511        -0.852072        -1.732169
 H         4.132629         0.266013        -1.222624
 H         4.098388        -1.097555         1.208955
 H         4.578230         0.612121         1.341345
 H         0.944774         0.235605         2.740540
 H         2.104211         2.929442         0.347885
