19
Iteration:  4310
 C        -0.026975        -0.173695         0.270528
 C         1.402859         0.022707        -0.058960
 C         2.091973        -0.309414        -1.338087
 C         3.331311         0.456970        -0.712839
 C         3.687435        -0.355778         0.536485
 C         2.425710        -0.083708         1.180722
 O         2.048520        -0.039804         2.543646
 C         2.183272         1.200225         0.288688
 O         1.836050         2.476106         0.681672
 H        -0.341668        -1.214981         0.488928
 H        -0.418430         0.463380         1.098921
 H        -0.603046         0.021113        -0.682816
 H         2.061335        -1.346826        -1.651792
 H         1.789729         0.338303        -2.185519
 H         4.127019         0.836672        -1.424238
 H         4.092809        -1.345165         0.312720
 H         4.687534         0.081768         0.980417
 H         1.179936         0.406729         2.568537
 H         2.329545         2.641916         1.487337
