19
Iteration:  3074
 C        -0.053253        -0.295353         0.564924
 C         1.425073        -0.125932         0.214146
 C         2.246232        -0.738084        -0.924781
 C         3.390217         0.205183        -0.647356
 C         3.826865        -0.108021         0.843929
 C         2.471676         0.287654         1.327254
 O         1.797452         0.231858         2.568676
 C         2.219316         1.217743         0.097929
 O         1.711299         2.468150        -0.381483
 H        -0.135389        -0.166203         1.727500
 H        -0.729160         0.376058         0.001740
 H        -0.412973        -1.309351         0.415413
 H         2.508479        -1.825902        -1.008671
 H         1.689955        -0.465659        -1.839224
 H         4.169193         0.603357        -1.277806
 H         4.068388        -1.240633         0.931495
 H         4.604092         0.653113         1.270457
 H         1.664389         1.193364         2.764321
 H         2.312968         2.621917        -1.118399
