19
Iteration:  4394
 C        -0.194897        -0.124956         0.363491
 C         1.358025         0.031778         0.102650
 C         2.102026        -0.183249        -1.239759
 C         3.383932         0.551353        -0.607371
 C         3.768985        -0.327562         0.549166
 C         2.411189         0.025526         1.214265
 O         2.032435        -0.514796         2.471251
 C         2.289687         1.270201         0.274616
 O         1.851890         2.592275         0.358247
 H        -0.528312         0.612163         1.154454
 H        -0.692018        -0.031675        -0.621368
 H        -0.329804        -1.093387         0.841632
 H         2.204335        -1.300003        -1.533938
 H         1.752270         0.514256        -2.083898
 H         4.158437         0.981055        -1.346569
 H         4.049003        -1.374068         0.291988
 H         4.630888         0.214020         0.986166
 H         1.160586        -0.898166         2.667148
 H         2.224894         3.165825         1.074789
