19
Iteration:  2713charge 0 multiplicity 1
 C        -0.059029        -0.710053         0.501469
 C         1.305910        -0.166951         0.254674
 C         2.257095        -0.826702        -0.790517
 C         3.370800         0.208493        -0.528598
 C         3.740626        -0.092125         0.875471
 C         2.292096         0.402220         1.257761
 O         1.718121         0.588487         2.520995
 C         2.210294         1.236990        -0.028827
 O         2.145467         2.519384        -0.427299
 H        -0.440272        -1.404824        -0.273083
 H        -0.215914        -1.181011         1.446125
 H        -0.860695        -0.029479         0.555227
 H         2.472793        -1.883213        -0.686081
 H         1.745143        -0.785713        -1.770712
 H         4.152601         0.372972        -1.312987
 H         4.026892        -1.128517         0.799739
 H         4.671676         0.539629         1.223883
 H         2.204428         1.274394         3.039062
 H         1.216547         2.854646        -0.449408
