19
Iteration:  1905
 C        -0.128009        -0.496591         0.229031
 C         1.323571        -0.186600         0.377135
 C         2.267496        -1.044310        -0.662287
 C         3.366830         0.084180        -0.559339
 C         3.763389         0.025236         0.849756
 C         2.378157         0.393448         1.356926
 O         2.000571         0.878872         2.572426
 C         2.220552         1.057460        -0.069642
 O         1.814533         2.377988        -0.432789
 H        -0.994850         0.185040         0.076984
 H        -0.310932        -1.165085        -0.575778
 H        -0.385473        -1.134987         1.100817
 H         2.627651        -1.985118        -0.231073
 H         1.816178        -1.123914        -1.657626
 H         4.048646         0.021826        -1.489096
 H         4.207186        -0.926450         1.152256
 H         4.518159         0.857750         1.325783
 H         2.501881         1.721381         2.757276
 H         0.830254         2.423691        -0.380451
