19
Iteration:  1249
 C        -0.068941        -0.298170         0.401442
 C         1.464892        -0.276341         0.242757
 C         2.426074        -1.008319        -0.734017
 C         3.403907         0.101680        -0.486748
 C         3.752745         0.158567         1.070412
 C         2.299417         0.425381         1.252848
 O         1.501592         0.581131         2.469827
 C         2.201514         1.027818        -0.130147
 O         2.037058         2.372971        -0.438642
 H        -0.294879         0.009751         1.430012
 H        -0.580960         0.223164        -0.435860
 H        -0.420052        -1.393573         0.343064
 H         2.733890        -2.098524        -0.655708
 H         2.301348        -0.982090        -1.882005
 H         4.303092         0.406978        -1.122803
 H         4.319827        -0.786126         1.387876
 H         4.373899         1.101685         1.156957
 H         1.935908         1.083262         3.229895
 H         1.147564         2.566858        -0.782457
