19
Iteration:  1090
 C        -0.168837        -0.121857         0.297258
 C         1.404975        -0.186192         0.049492
 C         2.427381        -0.978338        -0.800482
 C         3.486665         0.090869        -0.340040
 C         3.780979         0.050419         1.137013
 C         2.334673         0.363628         1.334577
 O         1.654837         0.539952         2.459659
 C         2.280315         1.068332         0.022247
 O         1.836219         2.267616        -0.574606
 H        -0.502888         0.905312         0.555527
 H        -0.642852        -0.457004        -0.627286
 H        -0.534588        -0.719659         1.118449
 H         2.864393        -1.971589        -0.377657
 H         2.241570        -1.132972        -1.835831
 H         4.203349         0.350310        -1.101719
 H         4.308820        -0.806234         1.555615
 H         4.328514         0.946437         1.414530
 H         2.280600         0.804341         3.199696
 H         1.235239         2.676628         0.092043
