19
Iteration:   171charge 0 multiplicity 1
 C        -0.109895         0.042536         0.051297
 C         1.389117        -0.155192         0.236884
 C         2.349214        -1.011182        -0.668348
 C         3.377100         0.110463        -0.411872
 C         3.734197        -0.067850         1.026832
 C         2.364721         0.416841         1.356048
 O         1.921221         0.573266         2.722417
 C         2.238922         1.127243         0.029733
 O         1.768589         2.191502        -0.670972
 H        -0.720250         0.611298         0.803938
 H        -0.225601         0.560580        -0.958377
 H        -0.473586        -1.048505        -0.015524
 H         2.792648        -1.915900        -0.268582
 H         1.986640        -1.137825        -1.733101
 H         4.325759         0.094113        -1.021596
 H         4.079617        -1.112181         1.444293
 H         4.477320         0.762173         1.214924
 H         1.612788        -0.327325         2.921494
 H         1.188236         2.691301        -0.088106
