19
Iteration:  4110
 C        -0.220377        -0.178475         0.145247
 C         1.289524        -0.034849        -0.025528
 C         2.184323        -0.503448        -1.249019
 C         3.280809         0.361796        -0.617977
 C         3.823377        -0.305835         0.629212
 C         2.419105         0.048458         1.247484
 O         2.200506         0.017509         2.543665
 C         2.142663         1.158879         0.184379
 O         1.821784         2.625345         0.538124
 H        -0.563301        -1.003310         0.823476
 H        -0.670076         0.758811         0.561712
 H        -0.648380        -0.415206        -0.815803
 H         2.589196        -1.518381        -1.177843
 H         1.826390        -0.250317        -2.246838
 H         3.956077         0.856359        -1.241550
 H         4.286432        -1.272499         0.506994
 H         4.576174         0.457471         0.921189
 H         1.274800        -0.273940         2.725335
 H         2.190520         2.776937         1.459310
