19
Iteration:  3103
 C        -0.047364        -0.367776         0.410228
 C         1.368627        -0.078645         0.138628
 C         2.252416        -0.751154        -0.919617
 C         3.347032         0.206972        -0.625564
 C         3.720380        -0.089779         0.851599
 C         2.384191         0.319290         1.323856
 O         1.986870         0.316646         2.670326
 C         2.097706         1.187361         0.091209
 O         1.771535         2.431860        -0.334160
 H        -0.635137         0.224692         1.119088
 H        -0.675168        -0.249269        -0.563207
 H        -0.286357        -1.384951         0.747217
 H         2.598990        -1.810065        -0.822798
 H         1.781662        -0.485124        -1.885814
 H         4.034041         0.709425        -1.299928
 H         3.940033        -1.153421         0.930671
 H         4.502590         0.384643         1.353446
 H         2.673328         0.906262         3.035797
 H         2.646925         2.729667        -0.661138
