19
Iteration:   345
 C        -0.086106        -0.283312         0.239974
 C         1.366138        -0.150449         0.033289
 C         2.323691        -1.016867        -0.811175
 C         3.416096         0.126839        -0.366757
 C         3.668620        -0.127480         1.150841
 C         2.330863         0.480331         1.346015
 O         1.800280         0.731986         2.576115
 C         2.250465         1.087467        -0.013018
 O         1.959812         2.335756        -0.586580
 H        -0.557123         0.682655         0.219809
 H        -0.505132        -0.862393        -0.572775
 H        -0.321874        -0.741299         1.200477
 H         2.460323        -2.085182        -0.531052
 H         1.935579        -0.968745        -1.922037
 H         4.291867         0.556106        -0.862349
 H         3.700018        -1.161923         1.461069
 H         4.571498         0.363998         1.591800
 H         1.764674        -0.105725         3.066171
 H         1.465254         2.817911         0.124364
