19
Iteration:  3268
 C        -0.149271        -0.452948         0.344649
 C         1.327435        -0.113974         0.183485
 C         2.135327        -0.751253        -0.924878
 C         3.283220         0.262534        -0.617986
 C         3.744269        -0.137036         0.796225
 C         2.414046         0.275948         1.344845
 O         2.095401         0.330470         2.712247
 C         2.154272         1.218274         0.085591
 O         1.992348         2.589233        -0.299711
 H        -0.500595        -0.958111        -0.535810
 H        -0.342525        -1.264794         1.119438
 H        -0.667569         0.456329         0.550469
 H         2.403872        -1.810567        -0.833365
 H         1.785203        -0.418483        -1.915983
 H         3.881001         0.673937        -1.400214
 H         4.245326        -1.155421         0.921911
 H         4.664730         0.488757         1.140645
 H         1.318310        -0.162966         3.078784
 H         1.111687         2.791934        -0.688815
