19
Iteration:  1067charge 0 multiplicity 1
 C        -0.019351        -0.290760         0.228058
 C         1.463682        -0.163080         0.205343
 C         2.347472        -0.854868        -0.826282
 C         3.433718         0.142339        -0.364210
 C         3.720955        -0.072812         1.102566
 C         2.310609         0.366350         1.391611
 O         1.674575         0.561670         2.665249
 C         2.219851         1.101326        -0.062606
 O         1.944304         2.330525        -0.673164
 H        -0.494317         0.638876         0.585061
 H        -0.421962        -0.645665        -0.705705
 H        -0.277826        -0.950010         1.043487
 H         2.558432        -2.013592        -0.754886
 H         1.899557        -0.687802        -1.798233
 H         4.171016         0.511915        -1.150952
 H         3.780053        -1.106377         1.375570
 H         4.518323         0.458278         1.638149
 H         1.882001         1.442386         2.931230
 H         0.962694         2.299735        -0.564453
