19
Iteration:  3097
 C        -0.014638        -0.363254         0.437060
 C         1.338865        -0.049300         0.164274
 C         2.224356        -0.768309        -0.958451
 C         3.328624         0.256055        -0.575326
 C         3.782116        -0.119281         0.859106
 C         2.369172         0.341506         1.355295
 O         1.955092         0.287583         2.646352
 C         2.135600         1.163553         0.058012
 O         1.767914         2.423340        -0.353109
 H        -0.402084         0.258536         1.320919
 H        -0.431776        -0.057273        -0.491868
 H        -0.215994        -1.432603         0.612914
 H         2.529409        -1.826118        -0.899760
 H         1.758886        -0.609296        -1.939796
 H         3.939181         0.767810        -1.343196
 H         3.855278        -1.251291         0.914409
 H         4.700861         0.516858         1.296880
 H         2.385405         0.950092         3.214667
 H         2.533810         2.738232        -0.880240
