19
Iteration:  3130charge 0 multiplicity 1
 C        -0.143897        -0.423181         0.339612
 C         1.321546        -0.138271         0.150597
 C         2.210613        -0.838887        -0.931229
 C         3.310804         0.185423        -0.592389
 C         3.779456        -0.118995         0.889870
 C         2.371898         0.244941         1.268289
 O         2.047063         0.489469         2.616286
 C         2.217565         1.190163        -0.004631
 O         1.775848         2.505777        -0.224004
 H        -0.804896         0.471597         0.483846
 H        -0.523280        -0.719114        -0.603362
 H        -0.560540        -1.147892         1.052815
 H         2.630198        -1.859646        -0.856286
 H         1.784224        -0.624875        -1.919891
 H         3.950925         0.765048        -1.250800
 H         4.245892        -1.137044         0.969949
 H         4.563461         0.486558         1.383946
 H         2.932705         0.616680         2.976338
 H         1.993709         2.977613         0.616095
