19
Iteration:  3421
 C        -0.138425        -0.517553         0.340333
 C         1.305308        -0.236212         0.115292
 C         2.183630        -0.736063        -0.908462
 C         3.293154         0.253345        -0.602731
 C         3.758116        -0.111715         0.803964
 C         2.386680         0.282439         1.276791
 O         2.045597         0.357134         2.633971
 C         2.231604         1.270549         0.049866
 O         1.994272         2.621471        -0.104258
 H        -0.368042        -1.506852        -0.066440
 H        -0.471136        -0.322910         1.412675
 H        -0.864700         0.067402        -0.214905
 H         2.383987        -1.839948        -0.890436
 H         1.825066        -0.604125        -1.960943
 H         3.969050         0.599636        -1.368225
 H         4.178930        -1.071085         0.911688
 H         4.399532         0.791833         1.237135
 H         1.132905        -0.012212         2.708801
 H         1.153927         2.756853        -0.561217
