19
Iteration:  1244
 C        -0.032847        -0.350900         0.391802
 C         1.418029        -0.237398         0.206752
 C         2.410843        -0.997916        -0.736484
 C         3.410965         0.088698        -0.460220
 C         3.753354         0.149488         1.063888
 C         2.307499         0.372669         1.245403
 O         1.523165         0.590639         2.488980
 C         2.211137         1.051891        -0.102713
 O         2.045160         2.381134        -0.471606
 H        -0.256892        -0.011903         1.407977
 H        -0.578288         0.211714        -0.371201
 H        -0.353720        -1.358020         0.278401
 H         2.699042        -2.105646        -0.649387
 H         2.159443        -0.950925        -1.788524
 H         4.207566         0.405336        -1.087789
 H         4.298939        -0.696745         1.432150
 H         4.216988         1.090682         1.307902
 H         1.866243         1.276019         3.059670
 H         1.096747         2.634850        -0.604284
