19
Iteration:   989
 C        -0.077842        -0.437567         0.355599
 C         1.392980        -0.327155         0.121030
 C         2.405871        -1.075975        -0.762793
 C         3.371715         0.091319        -0.518797
 C         3.721416        -0.016909         0.998134
 C         2.256356         0.330049         1.209953
 O         1.640433         0.901469         2.391536
 C         2.219961         1.050824        -0.104674
 O         2.063990         2.437039        -0.044637
 H        -0.342166         0.020899         1.310099
 H        -0.506560         0.126507        -0.460668
 H        -0.526622        -1.423483         0.271622
 H         2.573337        -2.169209        -0.488847
 H         2.054169        -0.970805        -1.775698
 H         4.364386         0.154046        -1.151540
 H         4.255763        -0.900335         1.292448
 H         4.254515         0.944987         1.246186
 H         1.063946         1.622187         2.130403
 H         2.251414         2.773838        -0.926037
