19
Iteration:   157
 C        -0.069994         0.028106         0.118186
 C         1.418899        -0.168030         0.103627
 C         2.418671        -1.066342        -0.697484
 C         3.427146         0.072512        -0.402122
 C         3.709173        -0.048388         1.101732
 C         2.269909         0.386379         1.405680
 O         1.944450         0.609508         2.709809
 C         2.190303         1.076611        -0.033149
 O         1.699692         2.236376        -0.673214
 H        -0.315578         0.630532         1.009132
 H        -0.390396         0.599772        -0.762934
 H        -0.743545        -0.826728         0.101701
 H         2.478968        -2.138452        -0.476880
 H         2.245320        -0.979679        -1.849270
 H         4.131121         0.479677        -1.198206
 H         3.966786        -1.068357         1.323678
 H         4.472884         0.567283         1.626380
 H         1.780547        -0.267412         3.172122
 H         1.895336         3.062362        -0.123407
