19
Iteration:  4599
 C        -0.142396        -0.113289         0.247973
 C         1.285822         0.100629        -0.061755
 C         2.090388        -0.045297        -1.390776
 C         3.324020         0.602489        -0.676198
 C         3.772918        -0.428499         0.463398
 C         2.349852        -0.087513         1.174608
 O         2.073247        -0.448987         2.523720
 C         2.250899         1.263393         0.393192
 O         1.924330         2.538508         0.721348
 H        -0.301903        -0.334990         1.337824
 H        -0.815999         0.709710        -0.125002
 H        -0.378235        -1.115830        -0.219364
 H         2.195232        -1.200326        -1.490087
 H         1.681222         0.272304        -2.381338
 H         4.300310         0.946552        -1.195939
 H         4.071163        -1.450123        -0.006975
 H         4.648646        -0.051890         0.970012
 H         1.143155        -0.720480         2.580717
 H         2.522597         2.962168         1.400919
