19
Iteration:   184charge 0 multiplicity 1
 C        -0.077658        -0.059068        -0.002013
 C         1.418863        -0.151503         0.333372
 C         2.236522        -0.942994        -0.621251
 C         3.402077         0.116379        -0.549017
 C         3.802463        -0.058406         1.070886
 C         2.352949         0.402150         1.422625
 O         1.886771         0.586236         2.669702
 C         2.331211         1.078325        -0.000222
 O         1.812470         2.234981        -0.634321
 H        -0.582429         0.518847         0.816615
 H        -0.277769         0.482640        -0.988202
 H        -0.704137        -1.009199        -0.079436
 H         2.425862        -1.972562        -0.279825
 H         1.731558        -1.037413        -1.541123
 H         4.000897         0.517888        -1.333948
 H         4.168524        -1.130633         1.500363
 H         4.509041         0.702253         1.435080
 H         1.303303        -0.178984         2.937906
 H         0.852702         2.318021        -0.315882
