19
Iteration:  4001
 C        -0.060311        -0.255836         0.465678
 C         1.301845         0.022025        -0.034737
 C         2.204308        -0.443301        -1.264832
 C         3.326544         0.438192        -0.628814
 C         3.769991        -0.385011         0.628846
 C         2.502218         0.054289         1.292551
 O         1.843865        -0.055383         2.551401
 C         2.188186         1.239039         0.219887
 O         1.833084         2.679922         0.202845
 H        -0.766599         0.428796        -0.073116
 H        -0.343720        -1.341013         0.340283
 H        -0.095329        -0.083992         1.531243
 H         2.659316        -1.489149        -1.362282
 H         1.907390        -0.094029        -2.285887
 H         4.086619         0.747234        -1.284438
 H         3.999772        -1.441693         0.603468
 H         4.698657         0.216891         1.038069
 H         2.047541        -0.940720         2.868340
 H         2.371935         2.940182         0.992764
