19
Iteration:   892charge 0 multiplicity 1
 C        -0.029960        -0.350624         0.267895
 C         1.440844        -0.047216         0.198525
 C         2.316178        -0.881557        -0.830274
 C         3.466609         0.249200        -0.409010
 C         3.755066        -0.217061         1.075469
 C         2.298217         0.263550         1.423637
 O         1.677884         0.668659         2.674771
 C         2.248631         1.180456        -0.002849
 O         1.788899         2.286264        -0.683746
 H        -0.585278         0.380481         0.913998
 H        -0.479081        -0.232243        -0.749048
 H        -0.141659        -1.435582         0.525614
 H         2.535693        -1.906725        -0.590726
 H         1.951038        -0.760290        -1.787958
 H         4.284899         0.288093        -1.274577
 H         3.936460        -1.286277         1.425559
 H         4.462518         0.406399         1.758912
 H         2.322950         1.306444         3.094175
 H         2.482474         2.570024        -1.282721
