19
Iteration:  3454charge 0 multiplicity 1
 C         0.041106        -0.353450         0.561003
 C         1.381741        -0.103393         0.017963
 C         2.212352        -0.743183        -1.021878
 C         3.272126         0.320649        -0.629167
 C         3.752316        -0.171821         0.854636
 C         2.423560         0.307276         1.206241
 O         1.831856         0.291167         2.538946
 C         2.266949         1.176177         0.093168
 O         1.917356         2.500924        -0.109273
 H        -0.074044        -1.268017         1.210390
 H        -0.230153         0.348152         1.439288
 H        -0.705953        -0.330597        -0.218550
 H         2.624699        -1.763870        -0.809501
 H         1.872619        -0.600787        -2.078010
 H         3.984571         0.821519        -1.274210
 H         4.065516        -1.163766         0.984083
 H         4.517164         0.641537         1.310220
 H         0.989715        -0.230341         2.476194
 H         0.975800         2.654866        -0.326190
