19
Iteration:   316
 C        -0.190269        -0.546457         0.344732
 C         1.259691        -0.182052         0.025165
 C         2.324242        -1.002868        -0.821337
 C         3.373395         0.141230        -0.430990
 C         3.684115        -0.090143         1.028721
 C         2.215612         0.357444         1.294520
 O         1.717317         0.889080         2.540223
 C         2.218098         1.080871        -0.062766
 O         2.326195         2.469905        -0.379292
 H        -0.799697         0.388128         0.259640
 H        -0.546211        -1.323820        -0.407096
 H        -0.280044        -1.081463         1.331895
 H         2.443331        -2.089790        -0.583318
 H         1.945190        -1.056299        -1.825420
 H         4.179089         0.608624        -0.919746
 H         4.158946        -1.024656         1.456345
 H         4.352167         0.680551         1.364781
 H         2.010846         0.166554         3.196752
 H         1.428937         2.876535        -0.422373
