19
Iteration:  1613
 C        -0.061125        -0.664656         0.450586
 C         1.346883        -0.239433         0.205600
 C         2.241266        -0.932701        -0.782312
 C         3.356319         0.155477        -0.478000
 C         3.668658         0.039460         1.003758
 C         2.255013         0.455435         1.320157
 O         1.877136         0.855345         2.627172
 C         2.207820         1.152303        -0.050420
 O         2.039612         2.347649        -0.677059
 H        -0.783034         0.190623         0.470674
 H        -0.340943        -1.304130        -0.349167
 H        -0.249374        -1.166883         1.388112
 H         2.564928        -1.997425        -0.798019
 H         1.818223        -0.712707        -1.806670
 H         4.353116         0.311699        -1.156879
 H         4.156369        -0.950653         1.392718
 H         4.229326         0.888289         1.346758
 H         2.320030         0.085463         3.064729
 H         1.287581         2.799320        -0.225852
