19
Iteration:  3596
 C        -0.062930        -0.346450         0.449944
 C         1.367796        -0.190891         0.130246
 C         2.231253        -0.643575        -1.123850
 C         3.320368         0.253413        -0.650741
 C         3.804540        -0.185703         0.775788
 C         2.447200         0.255905         1.209317
 O         1.871572         0.377182         2.459450
 C         2.137867         1.163231         0.094272
 O         1.919916         2.508744         0.206882
 H        -0.718400         0.068684        -0.269424
 H        -0.385061        -1.436730         0.529561
 H        -0.162735         0.060377         1.403723
 H         2.450077        -1.718270        -1.096231
 H         1.968237        -0.364101        -2.152566
 H         4.057697         0.722047        -1.309595
 H         4.018794        -1.192586         0.961294
 H         4.687658         0.466534         1.154218
 H         1.231026        -0.350625         2.657868
 H         1.441513         2.869199        -0.574347
