19
Iteration:   310
 C        -0.179679        -0.588545         0.337518
 C         1.319297        -0.187823         0.106517
 C         2.254345        -0.995204        -0.830518
 C         3.331328         0.130510        -0.462334
 C         3.693433        -0.030260         1.041251
 C         2.207759         0.291389         1.284663
 O         1.684372         0.905182         2.467067
 C         2.279419         1.072547        -0.028680
 O         2.365171         2.500145        -0.348477
 H        -0.909046         0.215766         0.347363
 H        -0.507397        -1.312647        -0.371598
 H        -0.241214        -1.068378         1.296533
 H         2.432034        -2.014117        -0.470602
 H         1.786004        -1.025515        -1.873535
 H         4.229756         0.581979        -1.063362
 H         4.012883        -1.053816         1.259862
 H         4.388794         0.760302         1.497826
 H         1.913564         0.279505         3.146426
 H         1.440997         2.825146        -0.483900
