19
Iteration:  3567charge 0 multiplicity 1
 C        -0.154328        -0.299654         0.209704
 C         1.337359        -0.094044         0.080547
 C         2.174833        -0.785849        -1.024640
 C         3.301912         0.282148        -0.620776
 C         3.833549        -0.111426         0.767355
 C         2.361526         0.133608         1.227343
 O         2.028783         0.435282         2.590660
 C         2.191665         1.152529         0.016168
 O         1.874419         2.483124         0.245416
 H        -0.896598         0.552172        -0.098745
 H        -0.417391        -1.114288        -0.483038
 H        -0.240846        -0.705435         1.259456
 H         2.338474        -1.851307        -0.697110
 H         2.000833        -0.724422        -2.120697
 H         4.021801         0.813900        -1.312940
 H         4.287038        -1.178042         0.852147
 H         4.457577         0.586869         1.255232
 H         2.314950        -0.295233         3.167780
 H         1.327900         2.865759        -0.479933
