19
Iteration:  2452
 C        -0.155396        -0.316911         0.125553
 C         1.356237        -0.281877         0.153159
 C         2.337172        -1.042585        -0.681889
 C         3.403179         0.098717        -0.499422
 C         3.821008         0.012849         0.913101
 C         2.300852         0.396725         1.333544
 O         1.996523         0.844130         2.605280
 C         2.190201         1.021436        -0.029563
 O         1.720230         2.295655        -0.245220
 H        -0.681838        -0.451297        -0.899060
 H        -0.210712        -1.261779         0.676468
 H        -0.500206         0.510429         0.810855
 H         2.533577        -2.079822        -0.301631
 H         2.189634        -1.073264        -1.787023
 H         4.016190         0.196253        -1.428331
 H         4.379110        -0.914245         1.323936
 H         4.268667         0.884378         1.132643
 H         2.237948         1.769678         2.675638
 H         1.457411         2.490485        -1.155436
