19
Iteration:   650charge 0 multiplicity 1
 C        -0.034269        -0.148572         0.312293
 C         1.438532        -0.114597         0.063009
 C         2.383706        -0.992027        -0.737258
 C         3.478611         0.160224        -0.421116
 C         3.708726        -0.076852         1.102707
 C         2.289475         0.397514         1.357664
 O         1.684156         0.621431         2.606024
 C         2.292465         1.084993        -0.062095
 O         1.761536         2.260551        -0.646437
 H        -0.380574         0.235904         1.271274
 H        -0.545848         0.222304        -0.600690
 H        -0.251371        -1.249919         0.403756
 H         2.723538        -2.072755        -0.462730
 H         2.108478        -1.007599        -1.778715
 H         4.299306         0.546410        -0.951393
 H         3.879291        -1.100251         1.355595
 H         4.392772         0.570709         1.696303
 H         2.018944        -0.079295         3.150271
 H         2.125506         3.064980        -0.262209
