19
Iteration:  4591
 C        -0.119743        -0.221695         0.298073
 C         1.272328         0.173709        -0.076075
 C         2.115234        -0.120952        -1.374789
 C         3.349269         0.661566        -0.670066
 C         3.738284        -0.442531         0.407713
 C         2.360499        -0.090203         1.159602
 O         2.004168        -0.409295         2.496806
 C         2.287946         1.242894         0.419663
 O         1.964336         2.552019         0.709658
 H        -0.050855        -0.408414         1.369447
 H        -0.777312         0.621674         0.206970
 H        -0.564029        -0.977229        -0.320546
 H         2.406520        -1.083905        -1.644883
 H         1.633970         0.361464        -2.254193
 H         4.103525         1.137551        -1.292986
 H         3.898841        -1.490461         0.134010
 H         4.588178        -0.119116         0.976586
 H         1.025767        -0.566728         2.554104
 H         2.401351         2.759752         1.592052
