19
Iteration:  4267charge 0 multiplicity 1
 C        -0.117928        -0.172741         0.252054
 C         1.287840        -0.108268         0.001502
 C         2.179846        -0.345766        -1.273899
 C         3.277730         0.455227        -0.651709
 C         3.801393        -0.322611         0.558752
 C         2.389050        -0.026698         1.057975
 O         2.119084        -0.013522         2.503552
 C         2.161216         1.220180         0.220091
 O         1.860967         2.542598         0.695668
 H        -0.551545        -0.775355        -0.569832
 H        -0.398864        -0.652747         1.211698
 H        -0.567375         0.869001         0.188504
 H         2.456607        -1.380366        -1.553118
 H         1.826976         0.111753        -2.223536
 H         3.962780         0.773278        -1.481886
 H         3.832099        -1.417154         0.421924
 H         4.594319        -0.042724         1.370458
 H         1.166511        -0.067795         2.622329
 H         2.455119         2.683369         1.441318
