19
Iteration:  4408
 C        -0.032073        -0.066401         0.378296
 C         1.352994         0.131486        -0.002640
 C         2.122228        -0.200140        -1.238573
 C         3.282756         0.512168        -0.634158
 C         3.804917        -0.354578         0.544451
 C         2.435783        -0.107780         1.179895
 O         2.030882        -0.417510         2.468321
 C         2.260570         1.269852         0.423376
 O         1.780084         2.545080         0.384752
 H        -0.471345         0.892488         0.676888
 H        -0.691865        -0.403638        -0.435376
 H        -0.288488        -0.884495         1.076019
 H         2.285426        -1.202484        -1.673058
 H         1.671611         0.353954        -2.062232
 H         3.980416         1.009026        -1.285361
 H         3.993929        -1.403750         0.292731
 H         4.603328         0.109216         1.247657
 H         1.160544        -0.749701         2.201489
 H         2.261514         2.971169         1.093843
