19
Iteration:  4930
 C        -0.185730        -0.254614         0.189005
 C         1.257099         0.103242        -0.022758
 C         1.996094         0.081495        -1.278800
 C         3.242858         0.658079        -0.641634
 C         3.670634        -0.400690         0.459578
 C         2.363627        -0.050466         1.083584
 O         2.056808        -0.520310         2.283375
 C         2.320063         1.222221         0.455547
 O         2.226336         2.535507         0.987771
 H        -0.765114         0.473956        -0.464975
 H        -0.340697        -1.256887        -0.215645
 H        -0.535118        -0.249438         1.231143
 H         2.116794        -0.789142        -1.958709
 H         1.650563         0.784199        -1.967684
 H         4.010574         1.359078        -1.110217
 H         3.951642        -1.353319        -0.047800
 H         4.571321        -0.059125         1.039517
 H         1.733814        -1.424608         2.013616
 H         1.319402         2.909560         0.816528
