19
Iteration:  4892charge 0 multiplicity 1
 C        -0.155656         0.076441         0.169089
 C         1.325575         0.094897        -0.068750
 C         2.082440        -0.046393        -1.360273
 C         3.215201         0.715715        -0.594344
 C         3.736660        -0.344519         0.360953
 C         2.414089        -0.134356         1.126324
 O         2.142838        -0.649030         2.436605
 C         2.273427         1.185561         0.503437
 O         1.931941         2.470567         0.927385
 H        -0.470230         1.027154         0.566921
 H        -0.790521        -0.059904        -0.737437
 H        -0.445160        -0.677448         0.915010
 H         2.157860        -1.083844        -1.535046
 H         1.652635         0.614605        -2.198576
 H         4.021227         1.233482        -1.067970
 H         3.834748        -1.350126        -0.015351
 H         4.565876         0.148233         0.830843
 H         1.633390        -1.451726         2.361238
 H         2.154756         2.826712         0.030362
