19
Iteration:  1071charge 0 multiplicity 1
 C        -0.028291        -0.263332         0.238185
 C         1.431402        -0.165092         0.162829
 C         2.374806        -0.895567        -0.807521
 C         3.450988         0.136471        -0.379396
 C         3.761642        -0.067172         1.122917
 C         2.322275         0.368560         1.367539
 O         1.666125         0.548939         2.641599
 C         2.179358         1.117058        -0.032800
 O         1.924247         2.310450        -0.663464
 H        -0.492820         0.726837         0.528481
 H        -0.503232        -0.572791        -0.738760
 H        -0.293952        -0.902255         1.109220
 H         2.438139        -1.938542        -0.752861
 H         2.020954        -0.604550        -1.803235
 H         4.211345         0.426288        -1.015204
 H         3.961653        -1.172358         1.503609
 H         4.525797         0.596782         1.550094
 H         2.008409         1.438467         2.976622
 H         0.972532         2.441610        -0.504755
