19
Iteration:  2833charge 0 multiplicity 1
 C        -0.000909        -0.192778         0.198941
 C         1.411570        -0.169796         0.219498
 C         2.248669        -0.832923        -0.819687
 C         3.374433         0.170735        -0.506843
 C         3.827195        -0.106058         0.924406
 C         2.405239         0.333324         1.312685
 O         2.022361         0.433535         2.610248
 C         2.187530         1.136627         0.073445
 O         1.555974         2.272678        -0.369404
 H        -0.396240         0.422819         1.098868
 H        -0.398321         0.429739        -0.627690
 H        -0.658298        -1.034248         0.276089
 H         2.429460        -1.925760        -0.733393
 H         1.800446        -0.707233        -1.830856
 H         4.018593         0.379510        -1.381421
 H         4.136139        -1.048311         1.083122
 H         4.468582         0.646883         1.518655
 H         1.968809         1.371414         2.868414
 H         2.128922         3.046739        -0.379549
