19
Iteration:  1774charge 0 multiplicity 1
 C        -0.130460        -0.574558         0.407809
 C         1.314032        -0.168998         0.248951
 C         2.246940        -0.933683        -0.707030
 C         3.317158         0.058527        -0.484916
 C         3.791651         0.037557         1.047340
 C         2.383515         0.476802         1.256885
 O         1.934012         0.784294         2.558153
 C         2.172969         1.161370        -0.080015
 O         1.928450         2.363725        -0.614852
 H        -0.539137        -0.225271         1.425680
 H        -0.745442        -0.274026        -0.464703
 H        -0.248808        -1.734572         0.497880
 H         2.403145        -1.969020        -0.272519
 H         1.903922        -1.145479        -1.753706
 H         4.121570        -0.010148        -1.303405
 H         4.172690        -0.910414         1.376513
 H         4.475715         0.859621         1.398192
 H         2.726279         0.904492         3.123830
 H         0.983151         2.435116        -0.827434
