19
Iteration:  2897charge 0 multiplicity 1
 C         0.016836        -0.303542         0.550844
 C         1.447802        -0.066221         0.210511
 C         2.227926        -0.812330        -0.851758
 C         3.360637         0.204995        -0.549513
 C         3.818313        -0.047220         0.926748
 C         2.379748         0.363249         1.268141
 O         1.774721         0.285911         2.511193
 C         2.202356         1.189956         0.014761
 O         1.727032         2.370150        -0.479579
 H        -0.543448         0.468674         0.009516
 H        -0.148272        -1.316077         0.119576
 H        -0.119144        -0.175490         1.583203
 H         2.394388        -1.906067        -0.784451
 H         1.932099        -0.639155        -1.895513
 H         3.987736         0.446384        -1.427506
 H         4.079520        -1.177002         1.063203
 H         4.559639         0.478126         1.607825
 H         2.191338         0.902620         3.159088
 H         2.381159         3.034475        -0.214962
