19
Iteration:  2308
 C        -0.190379        -0.666562         0.414742
 C         1.334124        -0.202646         0.264813
 C         2.233276        -1.093888        -0.636793
 C         3.314463         0.055505        -0.540899
 C         3.825303         0.115638         0.938056
 C         2.370919         0.516449         1.256404
 O         1.893928         0.896787         2.523654
 C         2.244119         1.063134        -0.119723
 O         1.997485         2.407277        -0.379909
 H        -0.509165        -0.722609         1.431313
 H        -0.828440        -0.103494        -0.257193
 H        -0.094283        -1.661903         0.059275
 H         2.484411        -2.166824        -0.462333
 H         1.912863        -0.952883        -1.664804
 H         3.860435         0.152863        -1.462762
 H         4.079755        -0.877675         1.584111
 H         4.508229         0.888496         1.010235
 H         1.093482         1.454262         2.418552
 H         1.856985         2.653141        -1.298126
