19
Iteration:  2277
 C        -0.078002        -0.454454         0.437785
 C         1.376761        -0.295303         0.140081
 C         2.396282        -1.112898        -0.714105
 C         3.345159         0.099517        -0.518061
 C         3.743567        -0.042457         0.995137
 C         2.311396         0.389075         1.261445
 O         1.935700         1.056160         2.424117
 C         2.177355         1.016112        -0.076183
 O         1.820316         2.334887        -0.273290
 H        -0.279731        -0.398070         1.487105
 H        -0.711053         0.223054        -0.116289
 H        -0.342355        -1.476371         0.083172
 H         2.712666        -2.128874        -0.452257
 H         2.103580        -1.004483        -1.730891
 H         3.950889         0.266061        -1.393108
 H         3.937325        -1.008127         1.479780
 H         4.562065         0.569649         1.373207
 H         1.726312         1.971740         2.119834
 H         1.177293         2.508756        -1.002930
