19
Iteration:  4055
 C        -0.178015        -0.266739         0.189545
 C         1.322065        -0.088088        -0.035438
 C         2.093988        -0.475440        -1.255141
 C         3.382148         0.404812        -0.693507
 C         3.886804        -0.316533         0.599408
 C         2.376942         0.067537         1.254267
 O         2.074611         0.123094         2.597605
 C         2.206262         1.132928         0.329372
 O         1.828102         2.588146         0.448205
 H        -0.677599        -0.953221        -0.533756
 H        -0.404168        -0.667172         1.214104
 H        -0.576632         0.735340         0.218994
 H         2.323259        -1.517550        -1.549768
 H         1.722515        -0.010823        -2.183963
 H         3.785156         0.996794        -1.439390
 H         4.139181        -1.340912         0.427923
 H         4.727882         0.103066         1.210509
 H         1.177865        -0.207851         2.703709
 H         2.463560         2.941972         1.128527
