19
Iteration:  3209charge 0 multiplicity 1
 C        -0.069252        -0.321972         0.537593
 C         1.389293        -0.176576         0.034574
 C         2.214329        -0.849396        -1.069392
 C         3.353547         0.199135        -0.698046
 C         3.757227        -0.182283         0.890447
 C         2.369127         0.307589         1.250583
 O         1.998111         0.545454         2.509978
 C         2.164484         1.096671         0.001176
 O         1.819743         2.452461         0.093942
 H        -0.812052         0.202086        -0.029737
 H        -0.257263        -1.377691         0.527228
 H        -0.217783        -0.101722         1.625207
 H         2.628492        -1.865380        -1.173171
 H         1.844941        -0.656145        -2.087763
 H         4.194456         0.527382        -1.367445
 H         4.040754        -1.237461         1.003167
 H         4.508764         0.633276         1.229674
 H         1.185557         1.073310         2.582333
 H         1.856847         2.922839        -0.752624
