19
Iteration:  4260
 C        -0.110149        -0.174376         0.215173
 C         1.354314        -0.090685         0.004554
 C         2.136478        -0.385506        -1.264111
 C         3.266300         0.458046        -0.728116
 C         3.797657        -0.343564         0.575664
 C         2.354611        -0.000755         1.133668
 O         2.092920        -0.042335         2.519022
 C         2.184472         1.249619         0.238770
 O         1.878079         2.546526         0.668993
 H        -0.608390        -0.549419        -0.658893
 H        -0.353719        -0.812205         1.063138
 H        -0.606719         0.793058         0.286036
 H         2.526771        -1.385260        -1.584012
 H         1.534931         0.095039        -2.056103
 H         3.909336         0.957405        -1.395648
 H         4.233355        -1.359124         0.428186
 H         4.512329         0.084455         1.205297
 H         1.195696        -0.244202         2.791214
 H         2.522690         2.756148         1.397374
