19
Iteration:  1397charge 0 multiplicity 1
 C         0.043274        -0.396270         0.499426
 C         1.421103        -0.123345         0.037739
 C         2.425519        -1.071319        -0.697690
 C         3.437961         0.090091        -0.492188
 C         3.717099        -0.018903         0.994576
 C         2.297212         0.422100         1.264950
 O         1.607292         0.616334         2.438619
 C         2.224154         1.098979        -0.064087
 O         1.788084         2.426311        -0.416724
 H        -0.410478         0.603089         0.730031
 H        -0.627600        -0.826858        -0.301502
 H         0.122820        -1.162024         1.307565
 H         2.569697        -2.024749        -0.151375
 H         2.227783        -1.379715        -1.751144
 H         4.191813         0.359592        -1.319975
 H         4.381373        -0.828078         1.443897
 H         4.416123         0.911135         1.248444
 H         1.671747         1.559710         2.671238
 H         2.517294         3.054364        -0.181118
