19
Iteration:  2882charge 0 multiplicity 1
 C        -0.077337        -0.225203         0.471985
 C         1.414417        -0.176151         0.159064
 C         2.287295        -0.782096        -0.845766
 C         3.379485         0.338608        -0.510083
 C         3.769295        -0.086535         0.940769
 C         2.394113         0.307582         1.353031
 O         1.903143         0.246689         2.627706
 C         2.173298         1.149106        -0.013341
 O         1.733485         2.356239        -0.580343
 H        -0.679111         0.663851         0.305104
 H        -0.704927        -0.997155        -0.000434
 H        -0.248820        -0.498040         1.555562
 H         2.604852        -1.848853        -0.712295
 H         1.748624        -0.679202        -1.805430
 H         4.187454         0.740713        -1.138646
 H         4.053516        -1.195554         1.162013
 H         4.509941         0.615046         1.135386
 H         2.092933         1.100801         3.033988
 H         2.356745         3.100879        -0.397548
