19
Iteration:  4962charge 0 multiplicity 1
 C        -0.030609        -0.317544         0.317818
 C         1.223631         0.187615        -0.175790
 C         2.006865         0.114487        -1.470324
 C         3.272570         0.733062        -0.669765
 C         3.725100        -0.510981         0.314141
 C         2.389869        -0.181783         1.097479
 O         1.829745        -0.378628         2.381249
 C         2.294716         1.222042         0.481301
 O         2.245524         2.526792         1.064984
 H        -0.650164        -0.657972        -0.571500
 H        -0.026627        -1.308058         0.790513
 H        -0.587054         0.442054         0.883722
 H         2.379562        -0.867706        -1.719806
 H         1.591865         0.627655        -2.301254
 H         3.956487         1.610939        -0.998091
 H         3.790650        -1.250359        -0.473944
 H         4.583533        -0.082498         0.787672
 H         1.716935        -1.311145         2.476363
 H         1.665957         2.419720         1.849480
