19
Iteration:  2553
 C        -0.061200        -0.599844         0.497801
 C         1.371595        -0.207898         0.148160
 C         2.274586        -0.923283        -0.843797
 C         3.341681         0.146778        -0.519103
 C         3.715469        -0.119794         0.922336
 C         2.324561         0.466986         1.258209
 O         1.770978         0.696863         2.620020
 C         2.274261         1.116640        -0.055103
 O         1.966906         2.509046        -0.358994
 H         0.044732        -1.171410         1.447402
 H        -0.695275         0.331286         0.571562
 H        -0.396728        -1.216410        -0.422882
 H         2.682624        -1.976376        -0.886666
 H         1.857596        -0.745605        -1.867309
 H         4.110336         0.423831        -1.278082
 H         3.837885        -1.183651         1.169115
 H         4.555051         0.453197         1.313755
 H         1.726551         1.674908         2.781303
 H         1.778190         2.535905        -1.328519
