19
Iteration:  3219
 C        -0.056194        -0.420661         0.492811
 C         1.335517        -0.163182         0.033498
 C         2.192074        -0.818709        -1.078823
 C         3.352667         0.174996        -0.656155
 C         3.744524        -0.195717         0.852330
 C         2.410580         0.283269         1.211787
 O         2.031732         0.530336         2.652856
 C         2.140735         1.161865         0.006778
 O         1.820667         2.544444         0.016416
 H        -0.793299         0.027315        -0.243046
 H        -0.223172        -1.457442         0.495096
 H        -0.184425         0.210965         1.418948
 H         2.650980        -1.837089        -0.881491
 H         1.559450        -0.603209        -1.951716
 H         4.247682         0.404197        -1.305620
 H         4.129509        -1.217694         0.955584
 H         4.584443         0.428504         1.302385
 H         1.101795         0.771083         2.635949
 H         2.052694         2.785160        -0.897182
