19
Iteration:  1683charge 0 multiplicity 1
 C         0.085694        -0.245280         0.461653
 C         1.500245        -0.224455         0.130905
 C         2.337262        -1.115274        -0.730930
 C         3.457556         0.008762        -0.489894
 C         3.802472        -0.049680         0.942692
 C         2.368521         0.492108         1.272145
 O         1.812266         0.879264         2.425834
 C         2.204410         1.076682        -0.092581
 O         1.526523         2.268118        -0.326556
 H        -0.257008         0.717177         0.829657
 H        -0.647784        -0.551691        -0.332455
 H        -0.155073        -0.941189         1.294010
 H         2.594520        -2.123263        -0.294346
 H         2.009932        -1.247044        -1.751930
 H         4.176357         0.180202        -1.232538
 H         4.282541        -0.874608         1.353425
 H         4.447748         0.875422         1.201491
 H         0.929944         0.402432         2.433644
 H         2.315494         2.863240        -0.452461
