19
Iteration:   627
 C        -0.030781        -0.234947         0.076948
 C         1.424718        -0.091571         0.237042
 C         2.348268        -0.818948        -0.715537
 C         3.437352         0.073433        -0.374831
 C         3.716556        -0.197675         1.133992
 C         2.395378         0.467049         1.402735
 O         1.803322         0.593025         2.597748
 C         2.235461         1.180461         0.021586
 O         1.634660         2.239429        -0.648230
 H        -0.591974         0.514702         0.651300
 H        -0.193332        -0.112983        -1.027931
 H        -0.445747        -1.201752         0.455460
 H         2.592252        -1.961083        -0.624475
 H         2.230979        -0.601286        -1.742205
 H         4.294652         0.146676        -0.963479
 H         3.633439        -1.179354         1.537604
 H         4.637992         0.310352         1.512439
 H         2.432649         0.400646         3.353592
 H         2.262535         2.800964        -1.157788
