19
Iteration:  1311charge 0 multiplicity 1
 C        -0.087832        -0.444920         0.145362
 C         1.449366        -0.221877         0.182039
 C         2.418030        -0.929413        -0.821367
 C         3.478221         0.112342        -0.429199
 C         3.658120        -0.100853         1.154538
 C         2.343222         0.544398         1.340614
 O         1.915999         0.868191         2.606298
 C         2.205316         1.063534        -0.025571
 O         1.658437         2.294640        -0.478599
 H        -0.600461         0.443873         0.491963
 H        -0.560835        -0.682440        -0.830705
 H        -0.439513        -1.326964         0.696803
 H         2.503169        -2.104112        -0.804491
 H         2.202327        -0.865612        -1.919396
 H         4.370861         0.297352        -1.142610
 H         3.755321        -1.145483         1.482192
 H         4.554928         0.356060         1.528228
 H         1.284919         0.161897         2.923083
 H         2.361558         2.963430        -0.452434
