19
Iteration:  2861charge 0 multiplicity 1
 C        -0.120045        -0.133073         0.402934
 C         1.335183        -0.135589         0.172202
 C         2.428424        -0.868041        -1.025143
 C         3.352880         0.240263        -0.521055
 C         3.764915        -0.017150         0.922383
 C         2.335661         0.307695         1.398846
 O         2.032549         0.294051         2.805730
 C         2.167245         1.135703         0.048856
 O         1.680694         2.299064        -0.559724
 H        -0.667883         0.793958         0.559365
 H        -0.655735        -0.499151        -0.508189
 H        -0.569949        -0.900700         1.089918
 H         2.769597        -1.894730        -0.762698
 H         2.121798        -0.682726        -2.063856
 H         3.902979         0.592824        -1.399922
 H         4.009140        -1.247931         0.971778
 H         4.369336         0.652656         1.452353
 H         2.047585         1.245397         3.088904
 H         2.287430         3.045068        -0.576595
