19
Iteration:   227
 C        -0.148927        -0.275061         0.355713
 C         1.370970        -0.214085         0.049288
 C         2.365070        -1.004756        -0.806333
 C         3.483674         0.102607        -0.480391
 C         3.686505        -0.145009         1.127514
 C         2.284960         0.366403         1.236446
 O         1.890372         0.834688         2.552830
 C         2.268093         1.086699        -0.084733
 O         1.872688         2.370616        -0.313288
 H        -0.424017         0.495322         1.123257
 H        -0.752339         0.011678        -0.560639
 H        -0.576223        -1.288302         0.666705
 H         2.538834        -2.081123        -0.780476
 H         2.091292        -0.852654        -1.855685
 H         4.219944         0.253258        -1.230042
 H         3.806715        -1.267880         1.447005
 H         4.360707         0.415614         1.777045
 H         0.945728         0.474896         2.648061
 H         2.063806         2.531041        -1.263469
