19
Iteration:   175charge 0 multiplicity 1
 C        -0.107282         0.020470         0.025254
 C         1.387775        -0.165242         0.282296
 C         2.308265        -0.968405        -0.661047
 C         3.387550         0.120475        -0.466488
 C         3.763241        -0.079602         1.039466
 C         2.360758         0.421777         1.386452
 O         1.913190         0.569347         2.700381
 C         2.268909         1.127719         0.024401
 O         1.785699         2.196825        -0.672288
 H        -0.697180         0.547735         0.772635
 H        -0.276118         0.494169        -0.949630
 H        -0.516587        -0.976347        -0.047156
 H         2.740900        -1.920324        -0.251563
 H         1.906249        -1.215568        -1.592136
 H         4.249575         0.183557        -1.055525
 H         4.115712        -1.013499         1.545527
 H         4.474609         0.699448         1.228260
 H         1.524051        -0.322771         2.934037
 H         1.070317         2.508235        -0.030697
