19
Iteration:  2424charge 0 multiplicity 1
 C        -0.099103        -0.187749         0.198853
 C         1.433566        -0.361759         0.258254
 C         2.345283        -1.056174        -0.752598
 C         3.411365         0.124594        -0.512792
 C         3.785268        -0.080728         1.012948
 C         2.400519         0.464160         1.305068
 O         2.011328         0.808209         2.566238
 C         2.144610         1.016136        -0.022206
 O         1.641047         2.292240        -0.359310
 H        -0.516755         0.549903        -0.556003
 H        -0.451030        -1.201547        -0.148406
 H        -0.519216         0.024426         1.197281
 H         2.692164        -1.982626        -0.272875
 H         2.019733        -1.144641        -1.811311
 H         4.119870         0.397670        -1.304087
 H         4.160319        -0.953368         1.501101
 H         4.629227         0.770097         1.366571
 H         1.561002         1.656725         2.539806
 H         1.011437         2.219560        -1.095342
