19
Iteration:  4207
 C        -0.157507        -0.211883         0.334764
 C         1.382040        -0.048173         0.010455
 C         2.116124        -0.366918        -1.249741
 C         3.299033         0.503296        -0.601476
 C         3.706116        -0.293326         0.613547
 C         2.392010        -0.024747         1.165507
 O         2.033372        -0.209747         2.509044
 C         2.246178         1.283312         0.295179
 O         1.891149         2.660297         0.340434
 H        -0.674743         0.717109        -0.004328
 H        -0.663953        -1.070887        -0.175789
 H        -0.354532        -0.300772         1.395133
 H         2.457047        -1.391597        -1.353655
 H         1.751102         0.047508        -2.177571
 H         4.153685         0.917403        -1.055932
 H         3.871410        -1.430822         0.478576
 H         4.431364         0.086013         1.306518
 H         2.193090        -1.121475         2.786647
 H         2.435870         3.200305         0.972080
