19
Iteration:   514charge 0 multiplicity 1
 C        -0.136184        -0.553807         0.457155
 C         1.345574        -0.209539         0.076782
 C         2.400098        -0.962085        -0.872943
 C         3.402238         0.112523        -0.531760
 C         3.701216        -0.180918         1.099548
 C         2.288700         0.365460         1.234433
 O         1.517048         0.868792         2.304038
 C         2.262988         1.122404        -0.003828
 O         2.151065         2.465712        -0.291407
 H        -0.509502         0.199846         1.197464
 H        -0.807591        -0.613860        -0.411651
 H        -0.047695        -1.441440         1.088018
 H         2.800605        -2.018111        -0.617611
 H         2.094736        -0.880009        -1.949544
 H         4.342880         0.510856        -1.038035
 H         3.860348        -1.194303         1.538414
 H         4.384499         0.567534         1.470226
 H         2.096802         1.145173         3.035321
 H         2.111241         3.019748         0.523591
