19
Iteration:  2302charge 0 multiplicity 1
 C        -0.154065        -0.622636         0.402100
 C         1.350792        -0.263644         0.260356
 C         2.255558        -1.065297        -0.654155
 C         3.307479         0.029715        -0.545341
 C         3.754587         0.084670         0.940548
 C         2.382832         0.472836         1.250950
 O         1.906149         0.941066         2.537918
 C         2.237370         1.051853        -0.134145
 O         1.976931         2.410545        -0.354989
 H        -0.501808        -0.737333         1.469784
 H        -0.859858        -0.087251        -0.258829
 H        -0.141405        -1.712774         0.003181
 H         2.335746        -2.102784        -0.301953
 H         1.847690        -0.935350        -1.684541
 H         4.060618         0.283562        -1.333273
 H         4.230854        -0.682445         1.421721
 H         4.552647         0.939027         1.144484
 H         1.201496         1.521629         2.231475
 H         1.738085         2.615564        -1.285051
