19
Iteration:  2085
 C        -0.069643        -0.440531         0.531722
 C         1.398340        -0.282963         0.158045
 C         2.320623        -1.057224        -0.780042
 C         3.425975        -0.028876        -0.501481
 C         3.771695        -0.030174         0.967711
 C         2.357387         0.356740         1.237357
 O         1.916638         1.043715         2.291207
 C         2.216564         1.038589        -0.146706
 O         1.728259         2.369806        -0.116812
 H        -0.445226         0.533601         0.826958
 H        -0.615906        -0.815949        -0.324260
 H        -0.181230        -1.111358         1.397499
 H         2.670998        -2.040108        -0.413094
 H         1.935658        -1.215289        -1.817886
 H         4.133491         0.431255        -1.146428
 H         4.156919        -1.112322         1.398738
 H         4.544676         0.693142         1.152293
 H         1.423214         1.853410         2.032291
 H         1.209632         2.474902        -0.923676
