19
Iteration:   957
 C        -0.141226        -0.435491         0.274186
 C         1.389647        -0.178443         0.081134
 C         2.393124        -1.052682        -0.650104
 C         3.362608         0.098952        -0.506765
 C         3.795692        -0.025425         0.947147
 C         2.337852         0.293993         1.239421
 O         1.595500         0.954250         2.223011
 C         2.246269         1.021582        -0.015589
 O         2.047865         2.338290        -0.024656
 H        -0.567548        -0.159683         1.255669
 H        -0.686220         0.245308        -0.387867
 H        -0.423151        -1.466577         0.018419
 H         2.520586        -2.018667        -0.141441
 H         2.154567        -1.152923        -1.657091
 H         4.319075         0.090406        -1.235042
 H         4.368544        -0.947225         1.267527
 H         4.422133         0.902318         1.250821
 H         2.127005         1.728044         2.571916
 H         1.062134         2.401572         0.017147
