19
Iteration:  1816
 C        -0.026758        -0.392504         0.698825
 C         1.374125        -0.247898         0.141704
 C         2.321295        -0.986236        -0.805615
 C         3.382300         0.086023        -0.577205
 C         3.827485        -0.116131         0.939240
 C         2.410508         0.531151         1.266987
 O         1.686219         0.784652         2.474129
 C         2.188551         1.015649        -0.099353
 O         1.852046         2.355296        -0.392047
 H        -0.141147         0.431234         1.413994
 H        -0.742548        -0.184864        -0.097267
 H        -0.181746        -1.369598         1.182349
 H         2.807615        -1.872031        -0.339833
 H         2.087063        -1.199085        -1.861769
 H         4.056686         0.491057        -1.333516
 H         4.168059        -1.030213         1.414292
 H         4.729457         0.717799         1.032546
 H         1.311546         1.708107         2.447126
 H         1.755800         2.355531        -1.377666
