19
Iteration:  2799charge 0 multiplicity 1
 C        -0.042448        -0.267140         0.293169
 C         1.427143        -0.219261         0.095581
 C         2.318753        -0.922631        -0.843658
 C         3.412085         0.146272        -0.626259
 C         3.822822        -0.174254         0.847519
 C         2.384095         0.375530         1.316517
 O         1.811265         0.707901         2.537171
 C         2.207448         1.081841         0.013547
 O         1.641493         2.299797        -0.123604
 H        -0.114102        -0.477843         1.395418
 H        -0.420637         0.779999         0.055039
 H        -0.498485        -1.003764        -0.361973
 H         2.591220        -1.947464        -0.502177
 H         1.942658        -0.916547        -1.902842
 H         4.029837         0.362771        -1.527754
 H         4.102202        -1.152518         0.971850
 H         4.665488         0.464709         1.286845
 H         2.252284         1.453849         3.013703
 H         2.033315         3.031308         0.369082
