19
Iteration:  2636charge 0 multiplicity 1
 C        -0.025384        -0.154196         0.309465
 C         1.425257        -0.285142         0.215858
 C         2.300939        -1.059931        -0.789941
 C         3.429526         0.222523        -0.533192
 C         3.848686        -0.090602         0.935183
 C         2.456805         0.299438         1.267144
 O         1.828322         0.671966         2.427597
 C         2.215801         1.091821         0.013096
 O         1.605179         2.314204        -0.174704
 H        -0.334235         0.883096         0.013577
 H        -0.535222        -0.735858        -0.435794
 H        -0.453377        -0.259457         1.275390
 H         2.565982        -2.046221        -0.461445
 H         1.949526        -1.011993        -1.841910
 H         4.153734         0.580877        -1.295361
 H         4.123451        -1.169718         1.228773
 H         4.521980         0.768742         1.471099
 H         2.165126         1.550939         2.659730
 H         1.281902         2.333463        -1.093838
