19
Iteration:  1615
 C        -0.067936        -0.654465         0.445671
 C         1.350239        -0.242396         0.191519
 C         2.235079        -0.948980        -0.782154
 C         3.367108         0.155525        -0.486638
 C         3.673570         0.031021         1.005937
 C         2.258687         0.453991         1.321133
 O         1.875469         0.856002         2.637306
 C         2.195488         1.148689        -0.040496
 O         2.049453         2.352625        -0.670892
 H        -0.787417         0.180957         0.526132
 H        -0.309739        -1.330173        -0.366299
 H        -0.200772        -1.102378         1.440192
 H         2.605335        -1.991366        -0.842663
 H         1.834406        -0.736750        -1.804547
 H         4.274073         0.356998        -1.244494
 H         4.131137        -0.860643         1.373512
 H         4.184404         0.942115         1.395116
 H         2.288480         0.106874         3.081999
 H         1.237560         2.756662        -0.319727
