19
Iteration:  4270
 C        -0.151852        -0.178349         0.263207
 C         1.294567        -0.095438        -0.013656
 C         2.183407        -0.340897        -1.280136
 C         3.310435         0.478931        -0.633602
 C         3.788696        -0.333003         0.566329
 C         2.404350        -0.027417         1.061381
 O         2.133923        -0.002272         2.483982
 C         2.154849         1.199810         0.217474
 O         1.853523         2.525638         0.698608
 H        -0.531328        -0.879665        -0.436158
 H        -0.441746        -0.549693         1.248783
 H        -0.545753         0.849879         0.193590
 H         2.390645        -1.433474        -1.496348
 H         1.954991         0.153576        -2.251181
 H         3.979579         0.734417        -1.390763
 H         3.676945        -1.390259         0.372864
 H         4.521488        -0.014373         1.237385
 H         1.154956         0.018113         2.508759
 H         2.436269         2.651953         1.511472
