19
Iteration:   710
 C        -0.028788        -0.617561         0.244087
 C         1.323059        -0.182365         0.148145
 C         2.280325        -1.003023        -0.660140
 C         3.415077        -0.002024        -0.537634
 C         3.766011        -0.034988         0.951605
 C         2.296801         0.338142         1.273014
 O         1.692365         1.015754         2.397122
 C         2.230886         1.095279        -0.049759
 O         2.066881         2.449060        -0.222532
 H        -0.431346        -0.234375         1.193607
 H        -0.680717        -0.114641        -0.468065
 H        -0.160534        -1.662622         0.053577
 H         2.613454        -1.941982        -0.235826
 H         1.929979        -1.094232        -1.777574
 H         4.316439         0.150589        -1.185984
 H         4.270553        -0.933621         1.403816
 H         4.323378         0.869381         1.130713
 H         0.826309         0.609063         2.612044
 H         1.648881         2.777914         0.612338
