19
Iteration:  1042charge 0 multiplicity 1
 C        -0.059631        -0.500477         0.248953
 C         1.413636        -0.093461         0.178351
 C         2.399405        -0.838541        -0.800682
 C         3.400157         0.157808        -0.413127
 C         3.615779        -0.270564         1.050145
 C         2.312435         0.448497         1.325637
 O         1.775689         0.666333         2.661137
 C         2.217715         1.233203         0.074239
 O         1.988516         2.405980        -0.608556
 H        -0.631481         0.182348         0.846928
 H        -0.462774        -0.689106        -0.740675
 H        -0.130163        -1.422742         0.856308
 H         2.460756        -1.990098        -0.625020
 H         1.926078        -0.807313        -1.858335
 H         4.369180         0.420293        -1.025350
 H         3.513232        -1.258750         1.376630
 H         4.472038         0.226798         1.548444
 H         1.362639         1.527789         2.731506
 H         1.506041         1.996075        -1.340783
