19
Iteration:  4738charge 0 multiplicity 1
 C        -0.131028        -0.384924         0.221237
 C         1.312553         0.117968        -0.017654
 C         2.075232        -0.038388        -1.264885
 C         3.305671         0.674671        -0.655551
 C         3.660341        -0.429384         0.416027
 C         2.342566        -0.108975         1.057874
 O         1.907488        -0.307824         2.337119
 C         2.249786         1.309509         0.367584
 O         2.156067         2.543773         0.934906
 H        -0.514581        -0.885464        -0.671697
 H        -0.274132        -1.042760         1.114869
 H        -0.729378         0.508583         0.435496
 H         2.230197        -1.032001        -1.737964
 H         1.847807         0.587149        -2.143221
 H         4.115641         1.275242        -1.195329
 H         3.889221        -1.433587         0.063159
 H         4.515063        -0.182015         1.088752
 H         1.326733        -1.066976         2.481928
 H         2.999134         2.769152         1.314461
