19
Iteration:  1946charge 0 multiplicity 1
 C        -0.066986        -0.324028         0.669341
 C         1.381925        -0.228805         0.139160
 C         2.367158        -1.002625        -0.765496
 C         3.376961         0.157326        -0.514193
 C         3.803435        -0.026017         0.958401
 C         2.373862         0.429511         1.263799
 O         1.801533         0.717903         2.577230
 C         2.198299         1.076230        -0.054564
 O         1.806189         2.278250        -0.638509
 H        -0.424479         0.600952         1.163925
 H        -0.588001        -0.440169        -0.337818
 H        -0.351299        -1.179698         1.279712
 H         2.667950        -1.993162        -0.371866
 H         2.141586        -0.962739        -1.830441
 H         4.084205         0.548810        -1.323186
 H         4.190862        -0.978580         1.208840
 H         4.584642         0.719049         1.280907
 H         2.106537         1.578127         2.868116
 H         0.846907         2.155497        -0.753619
