19
Iteration:  1381charge 0 multiplicity 1
 C        -0.039776        -0.417836         0.395902
 C         1.445983        -0.239422        -0.024766
 C         2.386904        -1.091624        -0.729423
 C         3.439178         0.064777        -0.487526
 C         3.761055         0.092300         1.065673
 C         2.315466         0.467385         1.214793
 O         1.738954         0.659233         2.519147
 C         2.150283         1.095979        -0.123733
 O         1.815133         2.456227        -0.269602
 H        -0.526397         0.555380         0.574007
 H        -0.654222        -0.922052        -0.328846
 H        -0.121303        -1.044637         1.295545
 H         2.689575        -2.074880        -0.303702
 H         2.127473        -1.346424        -1.762177
 H         4.271363         0.183854        -1.093627
 H         3.911577        -0.883274         1.533304
 H         4.496701         0.777311         1.462158
 H         1.276029         1.550221         2.537021
 H         2.348282         2.669938        -1.068962
