19
Iteration:  2150
 C        -0.041193        -0.472076         0.569199
 C         1.347112        -0.120929         0.279716
 C         2.234837        -0.937200        -0.657278
 C         3.394372         0.022912        -0.547489
 C         3.827639         0.057334         0.984630
 C         2.416384         0.518896         1.269399
 O         1.767178         0.604877         2.573140
 C         2.171153         1.109056        -0.154225
 O         1.888079         2.420146        -0.633512
 H        -0.830157         0.279815         0.587381
 H        -0.370973        -1.175908        -0.204787
 H        -0.214835        -1.014930         1.532663
 H         2.362198        -1.996151        -0.360134
 H         1.801759        -1.050582        -1.691904
 H         4.205719         0.328838        -1.144265
 H         3.935461        -1.031624         1.362993
 H         4.660611         0.748833         1.077772
 H         2.469864         1.142142         2.943781
 H         1.489835         2.210677        -1.499400
