19
Iteration:  4516
 C        -0.208828        -0.280303         0.074780
 C         1.231602        -0.006889        -0.047662
 C         2.109401        -0.207850        -1.291164
 C         3.231769         0.662695        -0.682437
 C         3.757063        -0.370777         0.562331
 C         2.362603        -0.062781         1.064795
 O         2.032106        -0.122500         2.447944
 C         2.208619         1.156892         0.346696
 O         2.169327         2.558905         0.842131
 H        -0.603248        -1.213731        -0.442342
 H        -0.257219        -0.623933         1.126695
 H        -0.869469         0.568103        -0.164983
 H         2.110038        -1.319682        -1.470792
 H         1.628544         0.319449        -2.153486
 H         3.770190         1.408452        -1.243386
 H         3.980254        -1.343973         0.184820
 H         4.550870         0.043570         1.224255
 H         2.156142        -1.000574         2.775953
 H         2.215413         2.450673         1.786530
