19
Iteration:   343
 C        -0.095728        -0.296487         0.241013
 C         1.355052        -0.161338         0.017387
 C         2.335375        -1.001229        -0.816891
 C         3.391650         0.109922        -0.370898
 C         3.655361        -0.097668         1.144837
 C         2.330397         0.477361         1.353694
 O         1.808353         0.741942         2.569043
 C         2.237789         1.081207        -0.002990
 O         1.988948         2.340630        -0.574225
 H        -0.558557         0.681553         0.223939
 H        -0.532406        -0.922545        -0.514984
 H        -0.275911        -0.783823         1.193566
 H         2.469574        -2.028291        -0.545441
 H         1.992667        -1.005471        -1.876617
 H         4.329318         0.504045        -0.910017
 H         3.650648        -1.152038         1.459989
 H         4.592078         0.346968         1.648465
 H         1.810329        -0.148286         3.063331
 H         1.450150         2.824637         0.104490
