19
Iteration:  4764
 C        -0.152812        -0.436729         0.046411
 C         1.213782         0.140157        -0.087342
 C         1.941466         0.019336        -1.334429
 C         3.193366         0.593058        -0.680556
 C         3.694856        -0.385027         0.493382
 C         2.350297        -0.031187         1.157296
 O         2.015761        -0.404334         2.460470
 C         2.245976         1.297541         0.450630
 O         2.293513         2.629393         0.888073
 H        -0.076697        -1.461055        -0.354216
 H        -0.443791        -0.559818         1.098594
 H        -0.940862         0.153690        -0.451648
 H         2.249140        -0.891140        -1.877824
 H         1.845517         0.545677        -2.204849
 H         3.897746         1.170736        -1.212450
 H         4.052748        -1.444187         0.271759
 H         4.482447         0.035457         1.069166
 H         1.459218        -1.212167         2.506369
 H         2.890591         2.657660         1.635176
