19
Iteration:  3251
 C        -0.107644        -0.499491         0.350282
 C         1.292896        -0.048086         0.226354
 C         2.144485        -0.696321        -0.922512
 C         3.254870         0.317721        -0.590986
 C         3.755957        -0.183482         0.809314
 C         2.403528         0.305201         1.237497
 O         2.132999         0.386547         2.657356
 C         2.191416         1.208741         0.068820
 O         1.962305         2.509935        -0.192685
 H        -0.458745        -0.659332        -0.743499
 H        -0.247281        -1.390653         0.931438
 H        -0.877545         0.157965         0.880520
 H         2.415480        -1.788999        -0.816486
 H         1.420320        -0.762121        -1.753249
 H         4.062029         0.582331        -1.316675
 H         3.915764        -1.260681         0.938419
 H         4.485966         0.411014         1.319906
 H         1.180323         0.097121         2.648356
 H         1.570914         2.398353        -1.084070
