19
Iteration:  1426charge 0 multiplicity 1
 C        -0.076296        -0.459382         0.507165
 C         1.457040        -0.260320         0.226859
 C         2.384869        -0.948802        -0.786406
 C         3.466521         0.203673        -0.487803
 C         3.771744        -0.031316         1.053346
 C         2.360671         0.473169         1.306049
 O         1.610948         0.705315         2.417934
 C         2.170078         1.064287        -0.035322
 O         1.931370         2.355978        -0.579589
 H        -0.451915         0.474981         1.013162
 H        -0.624040        -0.510516        -0.429142
 H        -0.303350        -1.367230         1.064214
 H         2.534410        -2.037113        -0.794928
 H         1.951945        -0.786101        -1.795119
 H         4.145347         0.567877        -1.281909
 H         4.077519        -1.021112         1.325599
 H         4.543386         0.636998         1.492691
 H         2.127037         0.918152         3.248068
 H         1.105451         2.618143        -0.106708
