19
Iteration:  4768charge 0 multiplicity 1
 C        -0.142381        -0.439659         0.041691
 C         1.214366         0.167497        -0.104282
 C         1.967568         0.029984        -1.305075
 C         3.177031         0.608868        -0.675996
 C         3.692565        -0.387779         0.475254
 C         2.361255        -0.036169         1.185580
 O         2.019938        -0.412295         2.482503
 C         2.218400         1.297660         0.432645
 O         2.301283         2.585060         0.864819
 H        -0.139910        -1.528271        -0.233564
 H        -0.507659        -0.433765         1.070401
 H        -0.811139         0.180236        -0.588783
 H         2.100115        -0.970676        -1.790925
 H         1.885199         0.696207        -2.286772
 H         3.870521         1.244687        -1.280501
 H         3.935895        -1.426164         0.292572
 H         4.567069         0.119035         1.051612
 H         1.506073        -1.225762         2.483731
 H         2.797932         2.654016         1.728952
