19
Iteration:   283charge 0 multiplicity 1
 C        -0.051101        -0.648920         0.418555
 C         1.370663        -0.130812         0.172182
 C         2.201204        -0.936973        -0.793890
 C         3.345149        -0.005616        -0.475382
 C         3.785503        -0.162980         0.974121
 C         2.320200         0.448677         1.218073
 O         1.535785         1.004273         2.307480
 C         2.223046         1.059099        -0.101128
 O         2.314262         2.486738        -0.124648
 H        -0.833674         0.147628         0.573980
 H        -0.400681        -1.188219        -0.522067
 H        -0.175024        -1.303207         1.339294
 H         2.290242        -1.998583        -0.503069
 H         1.771280        -0.703250        -1.707733
 H         4.165567         0.308975        -1.025453
 H         3.996860        -1.212437         1.399448
 H         4.563072         0.564150         1.084941
 H         1.322262         0.155839         2.705387
 H         1.572221         2.892974        -0.651849
