19
Iteration:  1435
 C        -0.052495        -0.469519         0.457599
 C         1.473166        -0.290752         0.195318
 C         2.388854        -0.935359        -0.870759
 C         3.379127         0.165764        -0.454087
 C         3.753544        -0.040987         1.052989
 C         2.353316         0.470295         1.315169
 O         1.654671         0.771129         2.510230
 C         2.187299         1.106570        -0.012884
 O         1.936489         2.326756        -0.574898
 H        -0.452412         0.260880         1.124165
 H        -0.550222        -0.469179        -0.482293
 H        -0.350175        -1.347717         1.008039
 H         2.612797        -2.016163        -0.742910
 H         2.002861        -0.630420        -1.836233
 H         4.117528         0.594462        -1.070435
 H         3.920516        -1.006711         1.426469
 H         4.390781         0.704176         1.302983
 H         2.286739         0.765522         3.285225
 H         0.969511         2.479027        -0.620503
