19
Iteration:  1276charge 0 multiplicity 1
 C        -0.038930        -0.260765         0.320591
 C         1.438601        -0.207215         0.078514
 C         2.431840        -1.055619        -0.676582
 C         3.432552         0.150888        -0.460198
 C         3.799205         0.024341         1.089090
 C         2.322720         0.346881         1.294915
 O         1.617473         0.674849         2.442276
 C         2.180876         1.096433        -0.054816
 O         1.785416         2.356857        -0.413736
 H        -0.218468         0.380511         1.198999
 H        -0.609253         0.115146        -0.527102
 H        -0.349925        -1.227832         0.662962
 H         2.774200        -1.909636        -0.095968
 H         2.373652        -1.159210        -1.735899
 H         4.184695         0.512598        -1.138578
 H         4.220207        -0.940762         1.310497
 H         4.400809         0.877210         1.449816
 H         2.102153         0.301038         3.228392
 H         2.056783         2.375555        -1.343857
