19
Iteration:  1245charge 0 multiplicity 1
 C        -0.039688        -0.339144         0.394349
 C         1.427438        -0.243821         0.218538
 C         2.413628        -0.994800        -0.733451
 C         3.406405         0.087472        -0.466158
 C         3.751987         0.154271         1.066091
 C         2.307590         0.381274         1.240853
 O         1.518297         0.589379         2.486962
 C         2.209965         1.045733        -0.108349
 O         2.043538         2.379740        -0.465202
 H        -0.253502        -0.014325         1.412446
 H        -0.580077         0.211751        -0.392898
 H        -0.368146        -1.367240         0.288824
 H         2.714276        -2.142233        -0.666310
 H         2.201741        -0.965551        -1.824853
 H         4.241336         0.415607        -1.093583
 H         4.308308        -0.718846         1.414180
 H         4.236052         1.087610         1.275179
 H         1.867043         1.231058         3.098112
 H         1.111769         2.627458        -0.636845
