19
Iteration:  1499
 C        -0.026289        -0.421593         0.191434
 C         1.416130        -0.245713         0.219441
 C         2.320988        -1.073297        -0.634838
 C         3.407381         0.129010        -0.519188
 C         3.792568         0.016541         0.943257
 C         2.352872         0.436796         1.344984
 O         1.872471         0.918346         2.597426
 C         2.191886         1.059795        -0.033355
 O         1.708938         2.305336        -0.528763
 H        -0.479384        -0.063917         1.092372
 H        -0.391967         0.157317        -0.680524
 H        -0.264710        -1.506669         0.085656
 H         2.689326        -2.055535        -0.238214
 H         2.066403        -1.219445        -1.675153
 H         4.115180         0.482173        -1.163595
 H         3.988092        -1.038684         1.384841
 H         4.520439         0.770291         1.374948
 H         1.309822         0.177861         2.901030
 H         1.874537         2.878564         0.241638
