19
Iteration:  2788
 C        -0.004285        -0.317953         0.401817
 C         1.408938        -0.211270         0.069591
 C         2.343509        -0.947392        -0.860214
 C         3.365818         0.174167        -0.558129
 C         3.772712        -0.123971         0.911671
 C         2.385413         0.288059         1.211420
 O         1.817640         0.744323         2.438636
 C         2.166084         1.061105         0.011161
 O         1.698065         2.366118        -0.120154
 H        -0.434293        -0.814515         1.342643
 H        -0.511540         0.714656         0.400249
 H        -0.525648        -0.877245        -0.378854
 H         2.587197        -2.016496        -0.645478
 H         2.070004        -0.860544        -1.941307
 H         4.150380         0.471837        -1.299463
 H         3.902738        -1.102385         1.165074
 H         4.643940         0.535929         1.242394
 H         2.551221         1.281051         2.784099
 H         2.243390         2.794503         0.553971
