19
Iteration:  4419charge 0 multiplicity 1
 C        -0.028817        -0.018468         0.370772
 C         1.436949         0.071787         0.034501
 C         2.054012        -0.258750        -1.402618
 C         3.346131         0.587288        -0.594380
 C         3.758687        -0.409895         0.544363
 C         2.460630        -0.069528         1.178809
 O         2.006407        -0.354348         2.424068
 C         2.243489         1.190985         0.389759
 O         1.742604         2.527893         0.484196
 H        -0.502507         0.954472         0.551972
 H        -0.474525        -0.592235        -0.442773
 H        -0.079956        -0.455228         1.371931
 H         2.327199        -1.321430        -1.544068
 H         1.592690         0.232172        -2.254075
 H         4.018734         1.255669        -1.087265
 H         4.008134        -1.464677         0.395115
 H         4.611591         0.082550         1.177131
 H         1.167561        -0.740980         2.602876
 H         2.296421         3.098309         1.028095
