19
Iteration:  3633charge 0 multiplicity 1
 C         0.000285        -0.414159         0.535647
 C         1.350490        -0.025731         0.053488
 C         2.256098        -0.531125        -1.098864
 C         3.295673         0.269240        -0.629853
 C         3.712017        -0.266760         0.732122
 C         2.332078         0.201141         1.262333
 O         1.911550         0.260192         2.546435
 C         2.273893         1.212750         0.133442
 O         1.881834         2.582938         0.072610
 H        -0.456256        -1.176899        -0.280479
 H        -0.064936        -0.808364         1.560886
 H        -0.755166         0.483257         0.406808
 H         2.708500        -1.596500        -1.134819
 H         2.021476        -0.276164        -2.172980
 H         4.212854         0.562865        -1.180193
 H         3.882920        -1.398882         0.781384
 H         4.552904         0.281092         0.976676
 H         1.277098        -0.495565         2.683729
 H         1.483904         2.567617        -0.817313
