19
Iteration:  3005charge 0 multiplicity 1
 C        -0.090622        -0.458650         0.246802
 C         1.394859        -0.160975         0.225541
 C         2.224759        -0.893459        -0.843418
 C         3.338188         0.231608        -0.661267
 C         3.827636        -0.099550         0.799959
 C         2.351834         0.210923         1.314914
 O         1.985615         0.657893         2.502673
 C         2.138055         1.108108        -0.027208
 O         1.868130         2.465501         0.044010
 H        -0.300721        -1.512359         0.565365
 H        -0.743651         0.202944         0.944112
 H        -0.646371        -0.307716        -0.704581
 H         2.530407        -1.982955        -0.675310
 H         1.571473        -0.776344        -1.755463
 H         3.983717         0.520297        -1.503316
 H         4.154180        -1.186960         1.081807
 H         4.545938         0.578176         1.167767
 H         2.102471         1.618729         2.642703
 H         1.134620         2.585504        -0.589212
