19
Iteration:  1957
 C        -0.033478        -0.330969         0.677484
 C         1.424000        -0.139044         0.248907
 C         2.398594        -0.965882        -0.731871
 C         3.393438         0.199273        -0.574822
 C         3.806800        -0.072464         0.968710
 C         2.331827         0.382917         1.285172
 O         1.720311         0.659111         2.523251
 C         2.260985         1.115387        -0.121255
 O         1.781309         2.251247        -0.661301
 H        -0.000338         0.512485         1.436153
 H        -0.993935        -0.094532         0.123806
 H        -0.198938        -1.156531         1.371630
 H         2.730366        -2.004193        -0.482729
 H         1.884349        -1.105224        -1.694268
 H         4.280585         0.527442        -1.246687
 H         4.083634        -1.043683         1.254277
 H         4.528243         0.751184         1.258376
 H         2.014296         1.580497         2.714692
 H         0.857066         2.160003        -0.997912
