19
Iteration:  1049charge 0 multiplicity 1
 C        -0.010786        -0.454746         0.278522
 C         1.428603        -0.135044         0.229947
 C         2.370665        -0.874021        -0.802508
 C         3.418884         0.228816        -0.513658
 C         3.579334        -0.254695         1.085847
 C         2.272884         0.482215         1.363931
 O         1.738721         0.623552         2.689606
 C         2.286443         1.234791         0.048713
 O         1.988215         2.337718        -0.640349
 H        -0.717006         0.370655         0.599509
 H        -0.267221        -0.571854        -0.819398
 H        -0.252794        -1.369575         0.876728
 H         2.578617        -1.895173        -0.724538
 H         1.920336        -0.714976        -1.785013
 H         4.313056         0.435151        -0.945745
 H         3.700505        -1.422465         1.271954
 H         4.446212         0.276953         1.459401
 H         1.475429         1.514534         2.827101
 H         1.225517         2.242072        -1.262619
