19
Iteration:  1094
 C        -0.161980        -0.104656         0.288885
 C         1.397959        -0.191473         0.076705
 C         2.461981        -1.012087        -0.774263
 C         3.477260         0.097134        -0.365919
 C         3.782069         0.090684         1.124830
 C         2.343825         0.336526         1.299121
 O         1.633924         0.548708         2.465384
 C         2.280135         1.066036        -0.023650
 O         1.834688         2.267267        -0.545939
 H        -0.498819         0.927599         0.543582
 H        -0.713222        -0.380418        -0.659758
 H        -0.462566        -0.709316         1.192441
 H         2.745358        -1.903099        -0.330382
 H         2.212178        -1.180477        -1.843757
 H         4.206239         0.419497        -1.078995
 H         4.252718        -0.876133         1.619168
 H         4.361018         0.964629         1.474948
 H         2.257106         0.662908         3.164530
 H         1.360195         2.592903         0.251723
