19
Iteration:  4985charge 0 multiplicity 1
 C        -0.127715        -0.256071         0.303661
 C         1.285743         0.118902        -0.038725
 C         2.080977         0.149074        -1.367001
 C         3.293832         0.677265        -0.692681
 C         3.681418        -0.439432         0.374716
 C         2.395046        -0.141624         0.988158
 O         1.946864        -0.336897         2.254762
 C         2.196097         1.251511         0.405424
 O         2.148723         2.406901         1.103382
 H        -0.441580        -0.960642        -0.511356
 H        -0.181814        -0.909339         1.165719
 H        -0.842750         0.578168         0.420246
 H         2.101835        -0.818063        -1.888028
 H         1.738516         0.931813        -1.962616
 H         4.241199         1.154936        -1.091858
 H         3.654466        -1.428757        -0.080757
 H         4.595610        -0.042614         0.830081
 H         1.686793        -1.305149         2.278757
 H         2.460844         2.319682         2.023533
