19
Iteration:  4770
 C        -0.137347        -0.439740         0.040165
 C         1.213156         0.186586        -0.101069
 C         1.994844         0.031863        -1.309199
 C         3.174017         0.619691        -0.662396
 C         3.691166        -0.381625         0.466859
 C         2.370538        -0.040597         1.191922
 O         2.023055        -0.411955         2.494874
 C         2.202812         1.288489         0.423620
 O         2.303810         2.560983         0.851623
 H        -0.179484        -1.527293        -0.178435
 H        -0.560635        -0.340616         1.076172
 H        -0.745943         0.161098        -0.665469
 H         1.996225        -1.038332        -1.699203
 H         1.828960         0.790376        -2.270082
 H         3.866431         1.279470        -1.315360
 H         3.858540        -1.425705         0.283423
 H         4.570083         0.141293         1.005654
 H         1.510399        -1.275910         2.456705
 H         2.727044         2.632802         1.765404
