19
Iteration:  3201
 C        -0.044581        -0.304036         0.533679
 C         1.353356        -0.193506         0.097683
 C         2.282624        -0.831654        -1.072046
 C         3.318935         0.213319        -0.622004
 C         3.747493        -0.148047         0.813468
 C         2.378009         0.279556         1.167848
 O         1.963467         0.552614         2.475528
 C         2.229565         1.101260         0.008344
 O         1.823421         2.398461         0.126263
 H        -0.773210         0.283411         0.044448
 H        -0.507989        -1.359190         0.476725
 H        -0.111455        -0.156189         1.605337
 H         2.278155        -1.911386        -0.938859
 H         1.956827        -0.577142        -2.094947
 H         3.970616         0.585745        -1.413853
 H         4.012467        -1.126431         1.234139
 H         4.632820         0.506062         1.222071
 H         1.323155         1.275092         2.423722
 H         1.650368         2.822988        -0.730226
