19
Iteration:  4508charge 0 multiplicity 1
 C        -0.267030        -0.285388         0.080811
 C         1.260820        -0.063952        -0.004706
 C         2.119177        -0.252430        -1.342305
 C         3.252620         0.644043        -0.653895
 C         3.763289        -0.379415         0.514409
 C         2.313313        -0.038797         1.111306
 O         2.074897        -0.133546         2.457651
 C         2.216001         1.245495         0.338650
 O         2.136374         2.573733         0.854409
 H        -0.769120        -0.891278        -0.704062
 H        -0.662807        -0.697501         1.083340
 H        -0.710491         0.744880        -0.080091
 H         2.414317        -1.342575        -1.724064
 H         1.862138         0.309474        -2.241025
 H         3.760731         1.243772        -1.352745
 H         3.988905        -1.394592         0.128133
 H         4.551865         0.051617         1.263890
 H         2.328434        -0.922801         2.903410
 H         2.166967         2.382700         1.795746
