19
Iteration:  2264
 C        -0.135996        -0.400072         0.458264
 C         1.414393        -0.271344         0.166634
 C         2.387418        -1.058020        -0.776981
 C         3.451761         0.076249        -0.515897
 C         3.768624        -0.129148         1.046651
 C         2.420637         0.481455         1.229171
 O         1.871189         1.058447         2.375440
 C         2.177293         0.965877        -0.118326
 O         1.713813         2.292599        -0.231829
 H        -0.280468        -0.208606         1.510595
 H        -0.723555         0.351384        -0.101056
 H        -0.508862        -1.372155         0.277771
 H         2.737984        -2.012570        -0.330983
 H         2.037633        -1.334696        -1.765972
 H         4.347195         0.458944        -1.029148
 H         4.064079        -1.286631         1.069631
 H         4.433137         0.566311         1.365332
 H         1.900486         2.032127         2.292765
 H         1.022346         2.184796        -0.890843
