19
Iteration:  3709charge 0 multiplicity 1
 C        -0.146238        -0.178952         0.200892
 C         1.396152        -0.146176         0.098875
 C         2.192924        -0.702797        -1.122302
 C         3.223338         0.370495        -0.631081
 C         3.817748        -0.216202         0.810689
 C         2.476753         0.203113         1.213814
 O         2.051792         0.335773         2.475289
 C         2.181783         1.137545         0.116849
 O         1.827838         2.411060         0.352785
 H        -0.437198        -0.230371         1.252452
 H        -0.586104         0.723216        -0.191106
 H        -0.593075        -0.891485        -0.445237
 H         2.516817        -1.759171        -1.012537
 H         1.749201        -0.542696        -2.129966
 H         3.946037         0.752809        -1.357820
 H         4.108912        -1.269977         1.052166
 H         4.536710         0.464457         1.223531
 H         2.110702        -0.524573         2.908034
 H         1.072611         2.690551        -0.212083
