19
Iteration:  3361
 C        -0.151285        -0.300603         0.323284
 C         1.406388        -0.141303         0.103970
 C         2.237319        -0.797066        -1.063158
 C         3.375332         0.193580        -0.570914
 C         3.787299        -0.233644         0.848023
 C         2.425266         0.234868         1.263242
 O         2.071405         0.658721         2.494391
 C         2.225552         1.065215         0.049011
 O         1.617575         2.440748         0.127352
 H        -0.345723        -1.103772        -0.437272
 H        -0.585576        -0.730254         1.214652
 H        -0.640311         0.666573        -0.055655
 H         2.462768        -1.875374        -0.958482
 H         1.799996        -0.464418        -2.004710
 H         4.171295         0.659593        -1.201194
 H         4.182372        -1.295445         0.919418
 H         4.512063         0.411522         1.259889
 H         1.861300        -0.172612         2.929303
 H         2.085466         3.033768        -0.469704
