19
Iteration:   803
 C        -0.074270        -0.191271         0.268641
 C         1.453242        -0.150031         0.188422
 C         2.358136        -1.087377        -0.658592
 C         3.416598         0.154718        -0.447807
 C         3.791890        -0.035388         1.041907
 C         2.393852         0.504841         1.310064
 O         1.632611         0.558265         2.455021
 C         2.244315         1.071365        -0.113604
 O         1.821565         2.304394        -0.486287
 H        -0.395620         0.871535         0.269282
 H        -0.596757        -0.710757        -0.555055
 H        -0.473701        -0.659286         1.218408
 H         2.815905        -2.029265        -0.345717
 H         2.027976        -1.108668        -1.653722
 H         4.260904         0.260114        -1.204559
 H         3.943774        -1.063736         1.472747
 H         4.679477         0.660772         1.336202
 H         2.165023         0.966245         3.172895
 H         1.492415         2.772490         0.277682
