19
Iteration:    62
 C        -0.147502        -0.738449         0.435510
 C         1.248299        -0.123316         0.009793
 C         2.326961        -1.004449        -0.851928
 C         3.388136         0.074419        -0.427543
 C         3.579485        -0.125594         1.073991
 C         2.178447         0.355959         1.163428
 O         1.826501         0.955942         2.480206
 C         2.196874         1.150126        -0.202542
 O         2.339970         2.572384        -0.172448
 H        -0.991082        -0.089815         0.786514
 H        -0.483986        -1.303786        -0.474547
 H        -0.021460        -1.599100         1.160090
 H         2.534971        -1.971708        -0.324667
 H         2.251232        -1.292257        -1.892297
 H         4.166796         0.398847        -1.209995
 H         4.046603        -1.020793         1.622904
 H         4.314048         0.665219         1.403408
 H         0.951935         0.708164         2.698020
 H         1.532344         2.979320        -0.535450
