19
Iteration:  4803charge 0 multiplicity 1
 C        -0.191576        -0.240999         0.181206
 C         1.302844         0.032170        -0.025444
 C         2.112504        -0.007267        -1.347293
 C         3.228933         0.705635        -0.617556
 C         3.721113        -0.467061         0.394015
 C         2.377624        -0.175045         1.041609
 O         2.018930        -0.352760         2.407255
 C         2.260346         1.224893         0.471194
 O         2.162656         2.594264         0.900410
 H        -0.604214        -1.119283         0.673618
 H        -0.618720         0.704443         0.575414
 H        -0.622003        -0.259858        -0.833050
 H         2.173950        -1.023532        -1.646466
 H         1.659687         0.724953        -2.105829
 H         3.840707         1.327546        -1.334308
 H         3.922059        -1.490348         0.101811
 H         4.575086        -0.053430         1.008089
 H         1.878159        -1.279988         2.586880
 H         1.367155         2.690730         1.479120
