19
Iteration:  2950charge 0 multiplicity 1
 C        -0.098878        -0.495924         0.373247
 C         1.374288        -0.229524         0.158053
 C         2.301714        -0.826702        -0.952817
 C         3.322561         0.220114        -0.561349
 C         3.706358        -0.142516         0.882851
 C         2.313695         0.293185         1.247684
 O         1.931261         0.732199         2.431659
 C         2.187001         1.105990        -0.040796
 O         1.848139         2.417638        -0.075542
 H        -0.583600        -1.109644        -0.403388
 H        -0.158722        -1.120895         1.373815
 H        -0.631017         0.443921         0.527555
 H         2.724595        -1.863530        -0.760489
 H         1.884689        -1.006398        -1.958996
 H         4.065329         0.701144        -1.224595
 H         3.991508        -1.299532         1.107064
 H         4.323575         0.626850         1.307906
 H         2.617837         1.260369         2.897970
 H         2.207076         2.846778         0.717659
