19
Iteration:  1980
 C         0.110690        -0.355454         0.718869
 C         1.450274        -0.137736         0.220004
 C         2.312411        -1.016009        -0.741856
 C         3.372150         0.069540        -0.489464
 C         3.824895        -0.047392         1.012838
 C         2.388744         0.537296         1.239339
 O         1.711915         0.630972         2.502948
 C         2.175988         1.145003        -0.096031
 O         1.724344         2.312615        -0.667554
 H        -0.232852         0.216042         1.633010
 H        -0.443807         0.160499        -0.121995
 H        -0.307520        -1.349893         0.840478
 H         2.360576        -2.105852        -0.529114
 H         2.122480        -0.935673        -1.819672
 H         4.207295         0.387225        -1.249057
 H         3.946181        -1.036589         1.295196
 H         4.710505         0.684928         1.251378
 H         2.062453         1.395228         2.960304
 H         1.166120         2.112226        -1.428796
