19
Iteration:   674
 C        -0.118499        -0.250595         0.447300
 C         1.407619        -0.332867         0.070045
 C         2.449313        -1.009489        -0.791030
 C         3.442320         0.115312        -0.431513
 C         3.753970         0.063672         1.082876
 C         2.276819         0.335942         1.293500
 O         1.663140         0.713797         2.451525
 C         2.183831         1.029235        -0.047845
 O         1.983244         2.388586        -0.522411
 H        -0.180766         0.155572         1.464119
 H        -0.551917         0.468226        -0.250180
 H        -0.750918        -1.151316         0.538448
 H         2.797837        -2.057671        -0.444280
 H         2.032518        -1.110126        -1.836869
 H         4.315782         0.423775        -1.071679
 H         4.284810        -0.786326         1.477675
 H         4.248323         0.979068         1.409397
 H         1.046039        -0.021841         2.693060
 H         1.871570         3.016117         0.228608
