19
Iteration:  4308
 C        -0.034550        -0.164796         0.273922
 C         1.412052         0.031883        -0.065776
 C         2.090667        -0.307110        -1.349582
 C         3.326192         0.474074        -0.723370
 C         3.697622        -0.359622         0.542147
 C         2.401349        -0.097590         1.180791
 O         2.053729        -0.029558         2.558489
 C         2.198747         1.197821         0.282049
 O         1.830485         2.465786         0.681137
 H        -0.321708        -1.247275         0.439030
 H        -0.400427         0.402251         1.151986
 H        -0.626000         0.034315        -0.617768
 H         2.099645        -1.369671        -1.595852
 H         1.887989         0.332244        -2.212290
 H         4.099056         0.816430        -1.506349
 H         4.086425        -1.374447         0.338709
 H         4.664993         0.042735         0.987514
 H         1.172104         0.437209         2.547149
 H         2.290116         2.603518         1.547295
