19
Iteration:   365
 C        -0.030462        -0.083545         0.211479
 C         1.464686        -0.152186         0.242886
 C         2.368880        -0.901678        -0.718007
 C         3.493204         0.072176        -0.437696
 C         3.767338        -0.200290         1.077254
 C         2.328354         0.305976         1.379671
 O         1.688412         0.724817         2.580354
 C         2.310821         1.122401        -0.033966
 O         1.714904         2.270207        -0.642567
 H        -0.389059         0.937540         0.260489
 H        -0.332527        -0.543514        -0.709967
 H        -0.458283        -0.707628         0.985539
 H         2.557347        -1.933493        -0.531705
 H         2.006798        -0.829126        -1.749437
 H         4.331358         0.073303        -1.203161
 H         4.016024        -1.251173         1.300525
 H         4.512716         0.419451         1.675574
 H         1.288290        -0.070793         2.891662
 H         1.775345         3.003105        -0.020065
