19
Iteration:  4780charge 0 multiplicity 1
 C        -0.146828        -0.373416         0.057366
 C         1.225244         0.219220        -0.040382
 C         2.041558         0.009104        -1.374303
 C         3.210122         0.658093        -0.597323
 C         3.664444        -0.343943         0.438569
 C         2.403009        -0.042765         1.162050
 O         2.025668        -0.405260         2.511174
 C         2.180014         1.203871         0.431789
 O         2.295112         2.518217         0.816023
 H        -0.126584        -1.488268         0.004489
 H        -0.748249         0.026637         0.882491
 H        -0.726456        -0.115434        -0.855128
 H         1.974582        -1.049106        -1.650064
 H         1.396141         0.711063        -2.031085
 H         3.965465         1.302102        -1.164933
 H         3.821636        -1.348465         0.091095
 H         4.649379         0.017251         0.938094
 H         1.629782        -1.326773         2.414859
 H         2.317719         2.460265         1.803319
