19
Iteration:   335charge 0 multiplicity 1
 C        -0.133078        -0.361015         0.259003
 C         1.348320        -0.186542        -0.024850
 C         2.372477        -0.928672        -0.812012
 C         3.354246         0.061841        -0.406960
 C         3.634775        -0.064092         1.134148
 C         2.309958         0.479399         1.342908
 O         1.813739         0.776966         2.570375
 C         2.158026         1.067078         0.010579
 O         2.108018         2.359328        -0.513504
 H        -0.671563         0.578992         0.275339
 H        -0.649765        -1.065799        -0.399411
 H        -0.240840        -0.855714         1.239248
 H         2.652980        -1.979107        -0.459618
 H         2.250308        -0.995580        -1.992963
 H         4.140205         0.162766        -1.124555
 H         3.648680        -1.119527         1.398185
 H         4.456005         0.450642         1.630951
 H         1.931268        -0.075490         3.085930
 H         1.403288         2.884392        -0.036629
