19
Iteration:  4158
 C        -0.064579        -0.195812         0.412450
 C         1.427552        -0.010525         0.023255
 C         2.171644        -0.309350        -1.249112
 C         3.316815         0.449003        -0.689363
 C         3.844161        -0.418141         0.623757
 C         2.442472        -0.025505         1.188574
 O         1.885361        -0.030505         2.459618
 C         2.207780         1.187603         0.396087
 O         1.760548         2.576525         0.326997
 H        -0.358527         0.255482         1.356716
 H        -0.655240         0.342430        -0.327367
 H        -0.396493        -1.275092         0.453769
 H         2.236239        -1.371209        -1.614407
 H         1.781756         0.404749        -2.017511
 H         4.033190         0.910299        -1.473646
 H         3.953003        -1.485830         0.579260
 H         4.655572         0.116912         1.188002
 H         2.093438        -0.987046         2.631831
 H         2.368059         3.184340         0.755439
