19
Iteration:  4541charge 0 multiplicity 1
 C        -0.096087        -0.357003         0.271800
 C         1.252705         0.125450        -0.021930
 C         2.099927        -0.127438        -1.421238
 C         3.248046         0.529513        -0.709675
 C         3.733024        -0.328164         0.480501
 C         2.337274        -0.040525         1.113754
 O         1.913749        -0.184462         2.465723
 C         2.295597         1.211469         0.357501
 O         2.158217         2.531538         0.821986
 H        -0.042130        -1.471633         0.211398
 H        -0.588505        -0.126618         1.288295
 H        -0.728758         0.033080        -0.579051
 H         2.065800        -1.279936        -1.709778
 H         1.872432         0.544539        -2.261666
 H         3.946389         1.095828        -1.298491
 H         4.163009        -1.294273         0.137869
 H         4.545105         0.294623         1.035809
 H         1.308269        -0.962958         2.546966
 H         2.070842         2.416120         1.772658
