19
Iteration:  3041
 C        -0.069697        -0.293379         0.501279
 C         1.358176        -0.133709         0.052405
 C         2.316236        -0.893416        -1.010618
 C         3.354251         0.216612        -0.635362
 C         3.741868        -0.052389         0.918423
 C         2.423112         0.319952         1.265598
 O         1.931300         0.417405         2.547041
 C         2.160886         1.060711         0.038633
 O         1.735145         2.431203        -0.133399
 H         0.137881        -0.660008         1.570844
 H        -0.401406         0.703632         0.719885
 H        -0.683991        -0.916873        -0.080925
 H         2.676776        -1.936205        -0.912642
 H         1.790387        -0.812376        -1.967291
 H         4.079625         0.774771        -1.190539
 H         3.981305        -1.197999         1.128768
 H         4.603011         0.607481         1.382060
 H         1.759653         1.367189         2.684050
 H         2.168816         2.758991        -0.942668
