19
Iteration:  2806charge 0 multiplicity 1
 C        -0.068031        -0.230167         0.238403
 C         1.438963        -0.123612         0.198608
 C         2.330680        -0.950616        -0.877375
 C         3.398191         0.137490        -0.624841
 C         3.851694        -0.176833         0.829637
 C         2.446369         0.368854         1.336727
 O         1.807116         0.655232         2.596807
 C         2.256760         1.101711        -0.016323
 O         1.580675         2.291553        -0.162120
 H        -0.349650        -0.323252         1.267802
 H        -0.605552         0.676526        -0.101502
 H        -0.600610        -1.079577        -0.199610
 H         2.698271        -1.979657        -0.717015
 H         1.738134        -1.083594        -1.778582
 H         4.194819         0.385795        -1.328139
 H         4.297643        -1.303815         1.022894
 H         4.572425         0.471006         1.246996
 H         2.145998         1.512069         2.909016
 H         2.037262         3.017191         0.278084
