19
Iteration:   318
 C        -0.189009        -0.535351         0.343314
 C         1.251989        -0.181959         0.006446
 C         2.337523        -1.004169        -0.818425
 C         3.381246         0.136316        -0.422403
 C         3.676552        -0.113940         1.033490
 C         2.220571         0.383799         1.295007
 O         1.729697         0.877056         2.558222
 C         2.191200         1.088490        -0.066705
 O         2.313006         2.455484        -0.387958
 H        -0.780052         0.407491         0.254133
 H        -0.550627        -1.280439        -0.412180
 H        -0.292696        -1.038661         1.327232
 H         2.482327        -2.055791        -0.592262
 H         2.036557        -1.023848        -1.813647
 H         4.230626         0.605580        -0.996786
 H         4.169021        -1.026770         1.487195
 H         4.367874         0.723824         1.341673
 H         2.001324         0.187124         3.193053
 H         1.417540         2.884974        -0.397881
