19
Iteration:   153
 C        -0.065801         0.015284         0.129827
 C         1.404501        -0.209179         0.089301
 C         2.398538        -1.037758        -0.727574
 C         3.457333         0.104828        -0.422212
 C         3.720711        -0.067369         1.135262
 C         2.263162         0.367759         1.396327
 O         1.931743         0.624872         2.701209
 C         2.204357         1.080547        -0.052589
 O         1.685528         2.250249        -0.669134
 H        -0.195599         0.603632         1.033277
 H        -0.449303         0.630079        -0.676771
 H        -0.739888        -0.821950         0.213506
 H         2.489117        -2.131523        -0.465395
 H         2.170817        -1.039426        -1.755146
 H         4.109017         0.475747        -1.148586
 H         3.951970        -1.071188         1.538977
 H         4.429936         0.554065         1.637941
 H         1.802884        -0.185301         3.213657
 H         2.156279         2.899372        -0.123882
