19
Iteration:  2363
 C        -0.052432        -0.406963         0.632813
 C         1.401945        -0.252264         0.157619
 C         2.342802        -0.943509        -0.787655
 C         3.464981         0.111560        -0.485485
 C         3.682393        -0.027972         1.031205
 C         2.353008         0.506055         1.250411
 O         1.873164         0.714106         2.571913
 C         2.149396         1.080487        -0.125873
 O         1.878462         2.363425        -0.584222
 H        -0.303839         0.374546         1.347184
 H        -0.800990        -0.302029        -0.164352
 H        -0.213737        -1.382817         1.115488
 H         2.450961        -2.005734        -0.459426
 H         2.049822        -1.010759        -1.851877
 H         4.297885         0.328688        -1.130706
 H         3.798644        -1.078728         1.554125
 H         4.380879         0.692123         1.274869
 H         0.969361         1.010189         2.453356
 H         1.448635         2.300055        -1.452406
