19
Iteration:  2687charge 0 multiplicity 1
 C         0.016957        -0.505180         0.484936
 C         1.338335        -0.113685         0.070393
 C         2.287713        -0.878515        -0.971585
 C         3.331609         0.181427        -0.529508
 C         3.725307        -0.084789         1.127575
 C         2.317609         0.356642         1.288484
 O         1.840799         0.538331         2.576305
 C         2.182511         1.186875        -0.029086
 O         1.982558         2.452543        -0.429777
 H        -0.829540        -0.734860        -0.193219
 H        -0.012889        -1.414734         1.249865
 H        -0.420676         0.271072         1.214220
 H         2.551452        -1.968847        -0.779477
 H         1.777170        -0.844357        -1.946208
 H         4.047411         0.592341        -1.216572
 H         3.901415        -1.095108         1.376023
 H         4.515912         0.581997         1.389397
 H         1.945395         1.489063         2.797840
 H         1.156067         2.526237        -0.964448
