19
Iteration:  2008
 C        -0.112378        -0.479372         0.495895
 C         1.332940        -0.162611         0.213902
 C         2.313536        -1.017288        -0.675903
 C         3.391558         0.080474        -0.566805
 C         3.798768         0.056858         0.981846
 C         2.353890         0.469181         1.292788
 O         1.929953         0.830297         2.581887
 C         2.151869         1.074856        -0.084216
 O         1.790642         2.299661        -0.532163
 H        -0.687617        -0.255018         1.373521
 H        -0.559442         0.011390        -0.389435
 H        -0.219644        -1.529319         0.207183
 H         2.492541        -2.064140        -0.388563
 H         2.101544        -1.143521        -1.757721
 H         4.167558         0.197803        -1.261875
 H         4.134205        -1.018318         1.322394
 H         4.390288         0.878603         1.246102
 H         2.625236         1.369326         2.977763
 H         1.459042         2.186269        -1.442757
