19
Iteration:  1282
 C        -0.016062        -0.258995         0.291204
 C         1.454325        -0.185409         0.062006
 C         2.427347        -1.031579        -0.675894
 C         3.428921         0.174182        -0.424724
 C         3.757791        -0.021295         1.095480
 C         2.279083         0.299537         1.328582
 O         1.686587         0.715234         2.451110
 C         2.194503         1.085227        -0.057817
 O         1.733254         2.365735        -0.433030
 H        -0.330618         0.415952         1.109973
 H        -0.707424        -0.007306        -0.542095
 H        -0.180999        -1.313506         0.675227
 H         2.677853        -1.900162        -0.015713
 H         2.449797        -1.123872        -1.806415
 H         4.262234         0.345351        -1.147422
 H         4.312285        -0.981398         1.336629
 H         4.441067         0.816582         1.372576
 H         2.095542         0.207922         3.180891
 H         2.134091         2.479623        -1.313955
