19
Iteration:   797
 C        -0.058064        -0.249519         0.247672
 C         1.425447        -0.179815         0.159684
 C         2.316288        -1.029731        -0.693316
 C         3.438132         0.097507        -0.435026
 C         3.772895        -0.032200         1.039088
 C         2.409867         0.522411         1.313638
 O         1.662307         0.680375         2.447037
 C         2.210081         1.035996        -0.059506
 O         1.832255         2.274882        -0.440743
 H        -0.514073         0.757300         0.215940
 H        -0.469290        -0.738530        -0.651616
 H        -0.375755        -0.784954         1.130078
 H         2.828747        -2.009615        -0.454286
 H         2.132312        -0.877619        -1.839110
 H         4.233312         0.320706        -1.133746
 H         3.898455        -1.078585         1.314251
 H         4.611975         0.474958         1.421297
 H         2.255312         0.926216         3.217252
 H         1.500939         2.717642         0.372034
