19
Iteration:  3031
 C        -0.086481        -0.341658         0.470660
 C         1.387079        -0.221338         0.033481
 C         2.327961        -0.916398        -1.001167
 C         3.350346         0.232105        -0.629747
 C         3.781769        -0.113139         0.849303
 C         2.349723         0.342504         1.273018
 O         1.971041         0.516478         2.551671
 C         2.128406         1.129688         0.057368
 O         1.760211         2.447279        -0.048889
 H        -0.394318        -0.993547         1.304328
 H        -0.493568         0.602837         0.647623
 H        -0.759648        -0.694925        -0.286116
 H         2.675846        -1.878323        -0.688355
 H         1.955333        -0.853225        -2.015521
 H         4.019319         0.487589        -1.444870
 H         4.014787        -1.153251         1.218993
 H         4.701980         0.546541         1.221569
 H         1.836170         1.433712         2.867024
 H         2.075951         2.705376        -0.925254
