19
Iteration:  2919charge 0 multiplicity 1
 C        -0.032050        -0.414229         0.514102
 C         1.393339        -0.132714         0.137893
 C         2.268364        -0.832209        -0.957999
 C         3.423883         0.118315        -0.564926
 C         3.785039        -0.117101         0.863684
 C         2.424185         0.379550         1.255114
 O         1.709498         0.499509         2.524176
 C         2.261124         1.147233        -0.008895
 O         1.716649         2.485553        -0.277118
 H        -0.770996        -0.188740        -0.255397
 H         0.110920        -1.469814         0.869184
 H        -0.069258         0.221496         1.349269
 H         2.498670        -1.820256        -0.538255
 H         1.811436        -0.888992        -1.963395
 H         4.080467         0.374711        -1.395064
 H         4.194767        -1.201361         1.121125
 H         4.644195         0.511507         1.247738
 H         2.248060         0.679498         3.293943
 H         2.329571         3.204697         0.012391
