19
Iteration:  3146
 C        -0.078602        -0.369754         0.287597
 C         1.332325        -0.199734         0.146291
 C         2.212783        -0.844271        -0.911411
 C         3.337818         0.244982        -0.641291
 C         3.780074        -0.154382         0.779958
 C         2.431450         0.327710         1.286311
 O         1.976868         0.566635         2.544290
 C         2.133358         1.130532         0.039464
 O         1.837440         2.432361        -0.067447
 H        -0.696276         0.531544         0.395257
 H        -0.506081        -0.995855        -0.587826
 H        -0.255465        -0.858081         1.277333
 H         2.401062        -1.894720        -0.645010
 H         1.720668        -0.641740        -1.876477
 H         4.072263         0.285431        -1.462582
 H         4.032672        -1.181132         1.076802
 H         4.584676         0.654859         1.077950
 H         2.723404         0.713255         3.163083
 H         1.304179         2.751990         0.679039
