19
Iteration:  4475charge 0 multiplicity 1
 C        -0.135402        -0.104027         0.057839
 C         1.331017         0.105104        -0.046068
 C         2.024060        -0.268978        -1.328290
 C         3.271907         0.543556        -0.678026
 C         3.776688        -0.364129         0.521052
 C         2.389488        -0.086042         1.167562
 O         2.111240        -0.129919         2.531142
 C         2.246021         1.218237         0.319677
 O         1.895955         2.419943         0.782347
 H        -0.531144        -0.063746        -0.967039
 H        -0.497786        -1.005949         0.632335
 H        -0.538544         0.743108         0.682832
 H         2.259919        -1.340185        -1.643852
 H         1.720059         0.349237        -2.167438
 H         3.757916         1.100739        -1.403749
 H         4.085824        -1.415892         0.343467
 H         4.572541        -0.017150         1.306849
 H         2.318081        -1.043107         2.863131
 H         2.096996         2.484843         1.767053
