19
Iteration:  1854charge 0 multiplicity 1
 C        -0.047812        -0.445257         0.493623
 C         1.392939        -0.272913         0.185386
 C         2.347446        -1.002415        -0.756098
 C         3.438121         0.028003        -0.568967
 C         3.747253        -0.066197         0.939101
 C         2.333050         0.394143         1.234136
 O         1.905568         0.956275         2.491111
 C         2.175760         1.008284        -0.161573
 O         1.765160         2.357338        -0.212206
 H        -0.516760         0.566841         0.619732
 H        -0.600273        -0.862312        -0.411399
 H        -0.398907        -1.065785         1.375042
 H         2.584616        -2.058994        -0.545952
 H         1.720144        -0.904817        -1.688802
 H         4.230344         0.165345        -1.342454
 H         4.210972        -0.902718         1.533327
 H         4.348234         0.770149         1.002027
 H         1.760906         1.911391         2.296879
 H         1.490254         2.608409        -1.111377
