19
Iteration:  1756charge 0 multiplicity 1
 C        -0.142135        -0.517368         0.293380
 C         1.340354        -0.183639         0.184293
 C         2.233449        -1.041410        -0.642450
 C         3.356465         0.091113        -0.523770
 C         3.809765        -0.009937         0.900909
 C         2.406247         0.555543         1.399873
 O         1.945259         0.908711         2.687096
 C         2.159808         1.035813        -0.042127
 O         1.881702         2.317189        -0.620778
 H        -0.719357        -0.268640         1.195406
 H        -0.700606        -0.334274        -0.622090
 H        -0.255775        -1.590201         0.407132
 H         2.436281        -2.090952        -0.520949
 H         1.928674        -0.945190        -1.717116
 H         4.041922         0.779107        -1.157204
 H         4.208673        -1.006556         1.358402
 H         4.601050         0.694396         1.012753
 H         2.526450         0.404114         3.319402
 H         0.937208         2.564429        -0.611084
