19
Iteration:  2358
 C        -0.055066        -0.427199         0.644155
 C         1.367190        -0.244842         0.166677
 C         2.376739        -0.959680        -0.790049
 C         3.426459         0.099559        -0.525377
 C         3.689978        -0.037471         1.049919
 C         2.290852         0.507193         1.214445
 O         1.875828         0.717607         2.582684
 C         2.160243         1.103750        -0.115378
 O         1.914126         2.373481        -0.584343
 H        -0.249335         0.291721         1.496423
 H        -0.714993        -0.242616        -0.249757
 H        -0.070129        -1.457831         1.043038
 H         2.525072        -1.986506        -0.410785
 H         1.888501        -1.145524        -1.786693
 H         4.335158         0.340175        -1.129849
 H         3.930770        -0.998857         1.340887
 H         4.352012         0.861742         1.440141
 H         0.931579         1.020372         2.618716
 H         1.561785         2.338494        -1.503624
