19
Iteration:  3422
 C        -0.138400        -0.513712         0.352468
 C         1.299333        -0.228336         0.114057
 C         2.186238        -0.740348        -0.904559
 C         3.302584         0.246247        -0.595357
 C         3.767311        -0.106490         0.799485
 C         2.388474         0.279972         1.268088
 O         2.034524         0.350769         2.631834
 C         2.230957         1.279133         0.044755
 O         1.991850         2.618895        -0.106482
 H        -0.395897        -1.530966        -0.030944
 H        -0.450893        -0.325545         1.400933
 H        -0.835796         0.048685        -0.218303
 H         2.382490        -1.832317        -0.903772
 H         1.830439        -0.578766        -1.950316
 H         3.995361         0.607108        -1.349279
 H         4.175588        -1.092765         0.870368
 H         4.375773         0.782537         1.223964
 H         1.133000        -0.004747         2.727314
 H         1.147889         2.788172        -0.538881
