19
Iteration:  1983charge 0 multiplicity 1
 C         0.071462        -0.389286         0.668838
 C         1.457381        -0.128913         0.224326
 C         2.305844        -1.021703        -0.741527
 C         3.365662         0.057141        -0.482082
 C         3.843944        -0.040098         1.014506
 C         2.385700         0.571352         1.260291
 O         1.732517         0.635520         2.506633
 C         2.178163         1.150620        -0.110565
 O         1.723039         2.310652        -0.652115
 H        -0.111873         0.227544         1.563216
 H        -0.513633         0.182685        -0.018917
 H        -0.344604        -1.408472         0.833913
 H         2.326272        -2.098055        -0.575905
 H         2.083160        -0.981151        -1.823955
 H         4.136650         0.382300        -1.171359
 H         3.932129        -1.093430         1.404635
 H         4.714876         0.713850         1.200726
 H         2.178806         1.391510         2.945429
 H         1.205034         2.124278        -1.473177
