19
Iteration:    25
 C        -0.171178        -0.586185         0.251982
 C         1.323205        -0.237801         0.184843
 C         2.271606        -0.959666        -0.781131
 C         3.360680         0.098997        -0.476811
 C         3.841198        -0.088895         1.002726
 C         2.323344         0.417975         1.326983
 O         1.691853         0.913480         2.529371
 C         2.239686         1.074202        -0.021877
 O         2.181873         2.424717        -0.397295
 H        -0.819967         0.254755         0.621298
 H        -0.432484        -0.666482        -0.825103
 H        -0.469841        -1.484883         0.848107
 H         2.480911        -1.922678        -0.464379
 H         2.017648        -0.889319        -1.858544
 H         4.046538         0.461499        -1.182713
 H         4.105679        -1.066137         1.424608
 H         4.495722         0.775021         1.234275
 H         0.811458         0.538764         2.472035
 H         1.733542         2.943275         0.344983
