19
Iteration:    91
 C        -0.029630        -0.547303         0.444520
 C         1.389890        -0.135668         0.160954
 C         2.304564        -0.977204        -0.832107
 C         3.374299         0.072333        -0.476210
 C         3.663368        -0.206730         1.043057
 C         2.286611         0.399595         1.231394
 O         1.659381         0.948330         2.359982
 C         2.262501         1.097545        -0.056580
 O         2.102105         2.489867        -0.202554
 H        -0.734832         0.185755         0.891536
 H        -0.442340        -0.845064        -0.557649
 H         0.002518        -1.477636         1.036368
 H         2.522161        -2.036566        -0.638607
 H         1.956932        -0.850528        -1.918035
 H         4.153624         0.363436        -1.204980
 H         3.829920        -1.268089         1.326157
 H         4.467725         0.502794         1.374565
 H         0.958885         0.335005         2.693832
 H         2.284815         2.638723        -1.128423
