19
Iteration:   351
 C        -0.064455        -0.240214         0.237688
 C         1.429602        -0.120092         0.095655
 C         2.289177        -1.037020        -0.804268
 C         3.473091         0.152373        -0.359048
 C         3.703404        -0.214528         1.158027
 C         2.330007         0.467016         1.324637
 O         1.766229         0.723177         2.594537
 C         2.266769         1.102403        -0.045470
 O         1.877746         2.320608        -0.615291
 H        -0.589182         0.761887         0.206750
 H        -0.456412        -0.727307        -0.687176
 H        -0.470733        -0.678197         1.181895
 H         2.478283        -2.075454        -0.527670
 H         1.969406        -0.890555        -1.777526
 H         4.310216         0.639367        -0.955187
 H         3.878661        -1.288218         1.449150
 H         4.507142         0.499592         1.452875
 H         1.617299        -0.131949         3.124680
 H         1.522870         2.845068         0.136730
