19
Iteration:  4466charge 0 multiplicity 1
 C        -0.143781        -0.066278         0.154955
 C         1.324828         0.099084        -0.079432
 C         2.041090        -0.255580        -1.333073
 C         3.267124         0.506470        -0.623199
 C         3.837018        -0.381275         0.544748
 C         2.446795        -0.102398         1.038292
 O         2.091230        -0.124920         2.556142
 C         2.311625         1.170339         0.330413
 O         1.790766         2.437338         0.762849
 H        -0.546726         0.255001        -0.778095
 H        -0.501990        -1.077017         0.274186
 H        -0.469275         0.743115         0.818817
 H         2.209613        -1.268741        -1.609628
 H         1.583358         0.291894        -2.121322
 H         3.966313         1.032779        -1.243939
 H         4.065679        -1.409924         0.189397
 H         4.571551         0.085623         1.219611
 H         1.994727        -1.096015         2.729324
 H         2.202080         2.753881         1.621976
