19
Iteration:  3392
 C        -0.114792        -0.467949         0.175540
 C         1.326284        -0.174275         0.131143
 C         2.191553        -0.753080        -0.946801
 C         3.251520         0.306159        -0.564060
 C         3.733173        -0.162537         0.751843
 C         2.376669         0.283884         1.331152
 O         2.183993         0.569351         2.700837
 C         2.121490         1.095153         0.044867
 O         1.876291         2.472970         0.010204
 H        -0.213092        -1.331581        -0.574109
 H        -0.556639        -0.654026         1.112067
 H        -0.767866         0.349302        -0.198935
 H         2.401801        -1.821007        -0.952586
 H         1.738298        -0.504174        -1.912453
 H         3.964896         0.792111        -1.287720
 H         4.193442        -1.249453         0.733776
 H         4.523699         0.327199         1.209345
 H         1.345460         0.086487         2.928153
 H         1.984257         2.775042        -0.923979
