19
Iteration:  1714charge 0 multiplicity 1
 C        -0.114065        -0.293819         0.369818
 C         1.430010        -0.303487         0.285251
 C         2.363683        -1.007970        -0.753370
 C         3.435960         0.157923        -0.455503
 C         3.818691        -0.078444         0.996356
 C         2.335369         0.411821         1.260103
 O         2.006424         0.948892         2.530492
 C         2.200622         0.989948        -0.121232
 O         1.627439         2.238446        -0.531679
 H        -0.419466         0.517615         1.001211
 H        -0.612580        -0.142395        -0.600415
 H        -0.501369        -1.140279         0.884765
 H         2.656033        -2.036981        -0.440180
 H         1.903657        -1.036872        -1.747432
 H         4.211987         0.353433        -1.226414
 H         4.410904        -1.021820         1.314465
 H         4.326178         0.905097         1.365486
 H         1.142890         0.573530         2.697313
 H         1.301329         2.492184         0.352554
