19
Iteration:  2434
 C        -0.122516        -0.276906         0.170558
 C         1.357549        -0.259284         0.155406
 C         2.323375        -1.091561        -0.739030
 C         3.403043         0.100082        -0.519574
 C         3.804534         0.005545         1.035735
 C         2.438127         0.394940         1.345779
 O         2.041184         0.819412         2.586881
 C         2.127963         0.995546        -0.023422
 O         1.648114         2.296588        -0.316983
 H        -0.226546         0.332996        -0.692010
 H        -0.696290        -1.223301         0.072552
 H        -0.499388         0.312358         1.029446
 H         2.807575        -2.032157        -0.454260
 H         1.968587        -1.355090        -1.741826
 H         4.208238         0.487865        -1.177363
 H         4.000466        -0.953530         1.512077
 H         4.580452         0.963738         1.262179
 H         1.857952         1.756206         2.505762
 H         1.185308         2.397496        -1.159698
