19
Iteration:  4024
 C         0.024387        -0.251949         0.390103
 C         1.379735         0.012099         0.015674
 C         2.087591        -0.479250        -1.206408
 C         3.374200         0.460483        -0.621206
 C         3.662316        -0.319113         0.659643
 C         2.355584         0.124490         1.203676
 O         1.933631         0.026645         2.457210
 C         2.324486         1.246870         0.230301
 O         1.812955         2.501338         0.340080
 H        -0.686975        -0.246637        -0.482494
 H         0.079261        -1.288244         0.832613
 H        -0.318678         0.361294         1.199099
 H         2.306071        -1.549278        -1.537616
 H         1.670998         0.112134        -2.054919
 H         4.025323         0.850454        -1.369701
 H         3.819886        -1.368502         0.455699
 H         4.527558         0.125362         1.336982
 H         1.777795        -0.938494         2.606323
 H         2.550677         2.936731         0.780184
