19
Iteration:  1281charge 0 multiplicity 1
 C        -0.019756        -0.257134         0.295215
 C         1.454723        -0.190493         0.063982
 C         2.423804        -1.035072        -0.676193
 C         3.426389         0.169430        -0.431600
 C         3.765318        -0.012882         1.097228
 C         2.285682         0.305819         1.328943
 O         1.675503         0.707108         2.447504
 C         2.190465         1.090043        -0.060020
 O         1.741283         2.364408        -0.428663
 H        -0.311652         0.404399         1.123505
 H        -0.699420         0.026109        -0.540022
 H        -0.198915        -1.308919         0.687072
 H         2.705179        -1.920709         0.022066
 H         2.460869        -1.108938        -1.814941
 H         4.275509         0.386575        -1.167713
 H         4.310255        -0.981124         1.323760
 H         4.426046         0.814499         1.374623
 H         2.093630         0.233227         3.170538
 H         2.132238         2.448276        -1.326002
