19
Iteration:  4030
 C        -0.060655        -0.270532         0.370152
 C         1.381041         0.042947         0.041960
 C         2.106283        -0.451324        -1.194827
 C         3.355455         0.466456        -0.598270
 C         3.670861        -0.312450         0.635959
 C         2.429678         0.074176         1.204618
 O         1.965657         0.061289         2.457004
 C         2.301461         1.179199         0.169113
 O         1.809808         2.506835         0.377124
 H        -0.584810        -0.460160        -0.553681
 H        -0.076977        -1.209149         0.929099
 H        -0.528987         0.486192         1.072324
 H         2.369378        -1.411050        -1.577728
 H         1.776145         0.142710        -2.040341
 H         4.181523         0.659219        -1.337178
 H         3.935663        -1.422999         0.625215
 H         4.385706         0.124693         1.211163
 H         1.615674        -0.855519         2.553165
 H         2.508278         3.080143         0.812728
