19
Iteration:  3704charge 0 multiplicity 1
 C        -0.146710        -0.184172         0.200304
 C         1.379051        -0.184002         0.064938
 C         2.175224        -0.678392        -1.113853
 C         3.249171         0.392283        -0.630096
 C         3.844688        -0.196928         0.792185
 C         2.459171         0.154775         1.217366
 O         2.031403         0.330377         2.547641
 C         2.200740         1.152328         0.122822
 O         1.855436         2.432600         0.308908
 H        -0.619544        -0.495701         1.182388
 H        -0.610846         0.864083        -0.132937
 H        -0.606902        -0.927066        -0.550917
 H         2.515856        -1.701606        -0.978438
 H         1.612720        -0.667184        -2.053884
 H         3.859487         0.707307        -1.511744
 H         4.024967        -1.249634         0.984189
 H         4.667265         0.565499         1.223806
 H         2.191157        -0.522125         3.036154
 H         1.051104         2.715600        -0.157184
