19
Iteration:    38charge 0 multiplicity 1
 C        -0.051977        -0.684487         0.261382
 C         1.319463        -0.205440         0.161532
 C         2.222988        -0.921775        -0.724714
 C         3.337647         0.120672        -0.484922
 C         3.652869        -0.025804         1.021832
 C         2.223514         0.388700         1.233763
 O         1.770053         0.907181         2.473858
 C         2.196941         1.098057        -0.048465
 O         2.327998         2.434218        -0.291617
 H        -0.644979         0.220675         0.584250
 H        -0.484457        -1.057128        -0.718780
 H        -0.282541        -1.569069         0.946172
 H         2.442531        -1.933349        -0.493139
 H         1.777007        -1.018732        -1.745514
 H         4.090215         0.227360        -1.290523
 H         4.224119        -0.968786         1.316813
 H         4.397735         0.737174         1.403254
 H         0.793039         0.808659         2.602850
 H         1.516812         2.834931         0.003025
