19
Iteration:  3796
 C        -0.143036        -0.402008         0.367566
 C         1.326882         0.017750         0.050634
 C         2.114898        -0.590217        -1.141476
 C         3.285303         0.405975        -0.610814
 C         3.785103        -0.192514         0.683805
 C         2.356025         0.135707         1.256076
 O         1.943933         0.046443         2.601843
 C         2.278469         1.254465         0.238535
 O         2.069608         2.645838         0.090569
 H        -1.040578        -0.130988        -0.227160
 H        -0.102493        -1.546555         0.241327
 H        -0.305014        -0.025369         1.381899
 H         2.237583        -1.666486        -1.189236
 H         1.755354        -0.266963        -2.132863
 H         3.996812         0.842464        -1.286752
 H         4.157842        -1.265741         0.827335
 H         4.465225         0.500799         1.224425
 H         1.587574        -0.805785         2.863425
 H         1.200832         2.711350        -0.327488
