19
Iteration:  2061charge 0 multiplicity 1
 C        -0.111126        -0.515604         0.264744
 C         1.353652        -0.271550         0.209412
 C         2.241157        -1.084546        -0.575607
 C         3.361107         0.003565        -0.611806
 C         3.825908        -0.008872         0.905989
 C         2.389657         0.443651         1.281837
 O         1.976462         1.087913         2.443058
 C         2.197721         0.995574        -0.149935
 O         1.778920         2.342667        -0.110665
 H        -0.581938         0.192948         0.918231
 H        -0.572122        -0.558192        -0.714989
 H        -0.157641        -1.533776         0.758571
 H         2.571444        -2.094831        -0.312347
 H         1.797020        -1.100260        -1.603601
 H         4.148148         0.140695        -1.282128
 H         4.439971        -0.952048         1.264618
 H         4.545215         0.854120         1.035823
 H         1.550777         1.924110         2.236611
 H         1.278280         2.468400        -0.934544
