19
Iteration:  4091charge 0 multiplicity 1
 C        -0.175106        -0.205319         0.097775
 C         1.289263        -0.084399         0.039706
 C         2.112111        -0.537721        -1.107126
 C         3.335439         0.473551        -0.712737
 C         3.760901        -0.230559         0.614087
 C         2.375378         0.053987         1.163639
 O         2.212944         0.039146         2.533865
 C         2.213042         1.221988         0.205360
 O         1.873960         2.488215         0.526909
 H        -0.566128        -1.248984         0.106152
 H        -0.627864         0.378278         0.931048
 H        -0.575331         0.192603        -0.846977
 H         2.368131        -1.647777        -1.235985
 H         1.651698        -0.094119        -2.021323
 H         3.987894         0.924971        -1.519227
 H         3.966688        -1.286404         0.655875
 H         4.364211         0.273170         1.480360
 H         1.371143        -0.041961         2.982176
 H         1.951804         2.771552         1.473515
