19
Iteration:  3294
 C        -0.099989        -0.276074         0.485232
 C         1.357783        -0.140643         0.111794
 C         2.194461        -0.764388        -1.011026
 C         3.345895         0.278333        -0.633792
 C         3.741263        -0.082681         0.860830
 C         2.407113         0.297033         1.264564
 O         2.006568         0.336595         2.611043
 C         2.168708         1.142687         0.051939
 O         1.899848         2.433827        -0.239541
 H        -0.602079        -0.967949        -0.298397
 H        -0.339426        -0.676119         1.468671
 H        -0.593959         0.761478         0.474017
 H         2.464641        -1.834995        -0.785525
 H         1.846202        -0.655813        -2.055604
 H         4.053358         0.727073        -1.375240
 H         4.195890        -1.040107         1.150491
 H         4.471307         0.554984         1.190121
 H         1.621444        -0.501977         2.960077
 H         1.206478         2.823796         0.341568
