19
Iteration:  1250
 C        -0.076735        -0.290847         0.402417
 C         1.472587        -0.286520         0.242897
 C         2.430249        -1.018173        -0.738605
 C         3.408509         0.110321        -0.491619
 C         3.756263         0.156435         1.070232
 C         2.296337         0.439000         1.263556
 O         1.498473         0.579505         2.464556
 C         2.198751         1.025427        -0.135504
 O         2.035248         2.370684        -0.431141
 H        -0.319126         0.027782         1.430068
 H        -0.577331         0.227561        -0.431329
 H        -0.426055        -1.374569         0.360418
 H         2.731397        -2.047471        -0.630664
 H         2.304707        -0.975589        -1.860488
 H         4.285243         0.388149        -1.122418
 H         4.306470        -0.781944         1.389065
 H         4.411406         1.092586         1.131232
 H         1.958599         1.032212         3.234535
 H         1.146842         2.544890        -0.829043
