19
Iteration:  4931charge 0 multiplicity 1
 C        -0.177162        -0.257611         0.191417
 C         1.255538         0.105171        -0.022210
 C         1.998399         0.078348        -1.281515
 C         3.241755         0.652232        -0.642357
 C         3.666525        -0.402692         0.450666
 C         2.362882        -0.047587         1.088153
 O         2.049712        -0.513135         2.280541
 C         2.321646         1.226894         0.463978
 O         2.229793         2.530898         0.988952
 H        -0.775281         0.431326        -0.494001
 H        -0.325894        -1.272120        -0.192678
 H        -0.526681        -0.229013         1.237199
 H         2.145622        -0.790346        -1.993280
 H         1.649273         0.803152        -1.964671
 H         3.979081         1.381892        -1.135910
 H         3.931697        -1.351559        -0.075638
 H         4.573662        -0.037133         1.076217
 H         1.733501        -1.426972         2.007913
 H         1.327115         2.898071         0.853834
