19
Iteration:  1489
 C        -0.084538        -0.461791         0.193020
 C         1.422751        -0.216160         0.245265
 C         2.424291        -1.020691        -0.642721
 C         3.395409         0.127190        -0.489044
 C         3.759419        -0.059313         1.065908
 C         2.390421         0.491371         1.307104
 O         1.922424         0.883495         2.580322
 C         2.084776         1.085735        -0.069551
 O         1.686953         2.337672        -0.553369
 H        -0.693782        -0.126071         0.992897
 H        -0.514356         0.008952        -0.681586
 H        -0.236795        -1.523350         0.013083
 H         2.664562        -2.062035        -0.336709
 H         1.945476        -1.052907        -1.618455
 H         4.078043         0.290960        -1.244833
 H         3.995472        -1.108948         1.364867
 H         4.534942         0.572827         1.452930
 H         1.666806         0.068181         3.084199
 H         2.294223         3.020404        -0.212030
