19
Iteration:  1393
 C         0.050929        -0.402850         0.462529
 C         1.383072        -0.150083         0.004780
 C         2.406625        -1.114110        -0.708572
 C         3.470151         0.072189        -0.516513
 C         3.710441         0.026437         1.023042
 C         2.303166         0.442403         1.277574
 O         1.638659         0.618932         2.457308
 C         2.213525         1.092350        -0.060743
 O         1.784356         2.446287        -0.376124
 H        -0.397588         0.578598         0.759484
 H        -0.571840        -0.827415        -0.314488
 H         0.088192        -1.044556         1.365410
 H         2.694263        -1.999622        -0.122747
 H         2.173162        -1.328997        -1.762194
 H         4.204977         0.300784        -1.249805
 H         4.243866        -0.879510         1.361865
 H         4.362734         0.909979         1.266713
 H         1.583309         1.581455         2.609736
 H         2.579364         3.034459        -0.436552
