19
Iteration:  4699charge 0 multiplicity 1
 C        -0.068835         0.008486         0.306977
 C         1.354558         0.052966        -0.107607
 C         2.093279        -0.035950        -1.394372
 C         3.376535         0.533809        -0.667575
 C         3.783164        -0.421128         0.468781
 C         2.413947        -0.113444         1.092599
 O         1.950449        -0.334537         2.415588
 C         2.301751         1.182637         0.374835
 O         1.797851         2.462134         0.851861
 H        -0.773699         0.522256        -0.380911
 H        -0.470594        -1.002936         0.451751
 H        -0.046499         0.562710         1.268728
 H         2.296098        -1.070699        -1.850238
 H         1.748063         0.654402        -2.212607
 H         4.061164         1.020365        -1.320571
 H         4.026468        -1.494737         0.167499
 H         4.544123         0.000909         1.104273
 H         1.709441        -1.311981         2.397378
 H         2.080820         2.539754         1.805431
