19
Iteration:   258
 C        -0.025939        -0.523336         0.502536
 C         1.363990        -0.161874         0.001885
 C         2.335704        -0.991269        -0.814397
 C         3.392534         0.043897        -0.569467
 C         3.647737        -0.253826         1.069863
 C         2.248175         0.342760         1.198438
 O         1.705875         1.012175         2.326008
 C         2.303032         1.105148        -0.021043
 O         2.077781         2.491862        -0.111205
 H        -0.500449         0.359733         0.948584
 H        -0.705978        -0.742073        -0.326647
 H        -0.101208        -1.326612         1.278832
 H         2.575544        -1.993454        -0.411156
 H         1.965321        -0.923529        -1.898598
 H         4.256741         0.193015        -1.225409
 H         3.801316        -1.222506         1.495749
 H         4.267661         0.541617         1.464616
 H         0.887517         0.571499         2.451032
 H         2.038623         2.726008        -1.058743
