19
Iteration:  4877
 C        -0.152838         0.173576         0.261955
 C         1.335829         0.034242         0.019144
 C         2.093252        -0.047510        -1.343629
 C         3.301072         0.703775        -0.651660
 C         3.749492        -0.410950         0.438033
 C         2.452112        -0.140318         1.115128
 O         2.140240        -0.582847         2.338426
 C         2.211952         1.157685         0.413910
 O         1.830729         2.424398         0.911635
 H        -0.339106         1.033242         0.968150
 H        -0.563994         0.360538        -0.731478
 H        -0.697408        -0.701610         0.678968
 H         2.599569        -0.977606        -1.855888
 H         1.489931         0.491829        -2.112823
 H         3.988138         1.456841        -1.173545
 H         4.024584        -1.379546        -0.036571
 H         4.639588        -0.284992         1.190965
 H         1.669939        -1.457527         2.207764
 H         1.969870         3.283984         0.435332
