19
Iteration:  1006
 C        -0.084408        -0.486175         0.322130
 C         1.399127        -0.202957         0.042252
 C         2.350885        -0.982952        -0.881537
 C         3.464522        -0.001050        -0.438399
 C         3.645538        -0.040024         1.090369
 C         2.224949         0.417623         1.246246
 O         1.785093         0.833382         2.494719
 C         2.209104         1.068730        -0.052595
 O         1.997922         2.429830        -0.222558
 H        -0.382402         0.016578         1.267631
 H        -0.925889        -0.191002        -0.360058
 H        -0.120185        -1.579992         0.526922
 H         2.614846        -1.985369        -0.581180
 H         2.047233        -0.879022        -1.979814
 H         4.204887         0.244389        -1.093437
 H         3.830166        -0.987408         1.727980
 H         4.330432         0.724741         1.426101
 H         1.078799         1.448404         2.363405
 H         2.478894         2.672527        -1.020904
