19
Iteration:  3471
 C         0.026018        -0.234320         0.541282
 C         1.413753        -0.151446         0.080037
 C         2.295339        -0.723603        -1.076054
 C         3.392141         0.304527        -0.583784
 C         3.775103        -0.195666         0.779357
 C         2.401665         0.201229         1.312556
 O         1.821901         0.349326         2.548306
 C         2.152709         1.194624         0.063759
 O         1.845770         2.519398        -0.096269
 H        -0.014708        -0.957769         1.376815
 H        -0.448082         0.698560         0.905011
 H        -0.606367        -0.848436        -0.189554
 H         2.422251        -1.809857        -1.050719
 H         1.795325        -0.511541        -2.019092
 H         4.097345         0.656278        -1.344663
 H         3.897877        -1.336728         0.735335
 H         4.561950         0.367855         1.172848
 H         1.404890        -0.497360         2.832632
 H         0.933792         2.571092        -0.479170
