19
Iteration:   743
 C        -0.094727        -0.791580         0.143411
 C         1.302817        -0.216168         0.082009
 C         2.317854        -0.928914        -0.774264
 C         3.401435         0.131905        -0.433635
 C         3.627585        -0.215077         1.154437
 C         2.313011         0.475980         1.227076
 O         1.900467         1.204563         2.328162
 C         2.119041         1.061785        -0.078108
 O         1.970688         2.394918        -0.157182
 H        -0.590569        -0.210351         0.931647
 H        -0.595009        -0.609745        -0.800181
 H        -0.160955        -1.784790         0.514293
 H         2.690933        -1.930534        -0.566923
 H         2.159826        -0.979989        -1.934848
 H         4.281432         0.405113        -1.020238
 H         3.565130        -1.257638         1.530310
 H         4.518455         0.248015         1.517850
 H         2.124859         0.611613         3.124382
 H         2.417315         2.696169         0.676290
