19
Iteration:   725charge 0 multiplicity 1
 C        -0.093048        -0.728790         0.193439
 C         1.376248        -0.194509         0.084620
 C         2.332669        -1.090507        -0.744419
 C         3.380505         0.033616        -0.493140
 C         3.704184        -0.154006         1.008086
 C         2.246875         0.396717         1.280221
 O         1.807445         1.163605         2.366311
 C         2.248330         1.125904        -0.031939
 O         2.002740         2.544649        -0.164428
 H        -0.737981        -0.560040         1.069219
 H        -0.687890        -0.470338        -0.713139
 H         0.085394        -1.837456         0.148079
 H         2.416505        -2.062031        -0.266727
 H         1.964972        -1.183894        -1.713714
 H         4.073374         0.177977        -1.267853
 H         4.024756        -1.192427         1.293731
 H         4.464528         0.567252         1.463033
 H         1.277195         0.605926         3.022511
 H         2.010927         2.959498         0.733587
