19
Iteration:  4554charge 0 multiplicity 1
 C        -0.117779        -0.386154         0.304996
 C         1.363666         0.059708        -0.083167
 C         2.019820        -0.105881        -1.357054
 C         3.326198         0.570731        -0.722441
 C         3.746843        -0.393788         0.497797
 C         2.412589        -0.047462         1.095312
 O         1.877048        -0.227783         2.429807
 C         2.267211         1.283079         0.326172
 O         2.137390         2.591621         0.828751
 H        -0.189950        -1.423671         0.726493
 H        -0.416264         0.339674         1.117344
 H        -0.925444        -0.423045        -0.477799
 H         2.215921        -1.118221        -1.908908
 H         1.450531         0.545166        -2.043174
 H         4.089743         1.146690        -1.367484
 H         3.924426        -1.522663         0.388099
 H         4.556622         0.048565         1.128421
 H         1.054084        -0.744987         2.344533
 H         2.001644         2.529270         1.807601
