19
Iteration:  4955
 C        -0.053766        -0.325005         0.278297
 C         1.279034         0.179529        -0.135507
 C         2.011882         0.124138        -1.416921
 C         3.246577         0.749320        -0.707195
 C         3.705427        -0.467315         0.334486
 C         2.383045        -0.204825         1.080727
 O         1.850422        -0.424222         2.407837
 C         2.241509         1.219424         0.443048
 O         2.270013         2.565622         1.067553
 H        -0.647997        -0.274540        -0.660316
 H        -0.027395        -1.385601         0.592134
 H        -0.529694         0.276517         1.076455
 H         2.146701        -0.964072        -1.757176
 H         1.586766         0.609628        -2.320909
 H         4.177126         1.299979        -0.944931
 H         3.878195        -1.407240        -0.269041
 H         4.778045        -0.102903         0.680619
 H         1.716377        -1.382590         2.465362
 H         1.441543         2.722788         1.611740
