19
Iteration:  3252
 C        -0.109516        -0.505217         0.346490
 C         1.299334        -0.051093         0.226700
 C         2.140081        -0.688070        -0.922711
 C         3.258812         0.319931        -0.595317
 C         3.763456        -0.188243         0.805059
 C         2.398543         0.300818         1.245919
 O         2.133725         0.383414         2.663577
 C         2.182955         1.210322         0.067858
 O         1.967294         2.511987        -0.199820
 H        -0.447448        -0.645989        -0.719983
 H        -0.285056        -1.362641         0.962974
 H        -0.875586         0.162376         0.855405
 H         2.379465        -1.779334        -0.798511
 H         1.430006        -0.795872        -1.763556
 H         4.078069         0.585896        -1.317928
 H         3.877591        -1.260409         0.956392
 H         4.508016         0.481457         1.342951
 H         1.193703         0.077806         2.630868
 H         1.539682         2.408384        -1.072603
