19
Iteration:   734charge 0 multiplicity 1
 C        -0.091027        -0.760243         0.167444
 C         1.295989        -0.236588         0.060125
 C         2.326794        -1.009850        -0.759602
 C         3.356827         0.076546        -0.465716
 C         3.669490        -0.183502         1.115655
 C         2.334377         0.457858         1.257121
 O         1.859506         1.191499         2.340093
 C         2.205140         1.076532        -0.091360
 O         1.979643         2.498785        -0.146225
 H        -0.699179        -0.386415         0.992520
 H        -0.676786        -0.650380        -0.756176
 H         0.049168        -1.844714         0.212611
 H         2.654628        -1.942891        -0.351105
 H         1.912540        -1.101106        -1.778300
 H         4.170313         0.331357        -1.067223
 H         3.735962        -1.297698         1.297434
 H         4.490496         0.392010         1.616483
 H         1.686660         0.588334         3.140916
 H         2.278078         2.816009         0.746106
