19
Iteration:  2971
 C        -0.195794        -0.538559         0.247726
 C         1.314845        -0.220768         0.114137
 C         2.276255        -0.908030        -0.901402
 C         3.356694         0.199430        -0.607301
 C         3.842013        -0.107047         0.842106
 C         2.378620         0.261321         1.275310
 O         1.948479         0.819353         2.555772
 C         2.129729         1.066714        -0.010208
 O         1.901175         2.470776         0.007646
 H        -0.277826        -1.484862        -0.318221
 H        -0.347307        -0.788744         1.372292
 H        -0.724860         0.300261        -0.255418
 H         2.345382        -2.046530        -1.029116
 H         1.712952        -0.746599        -1.875892
 H         4.048915         0.353467        -1.477661
 H         4.136081        -1.236749         1.048204
 H         4.545775         0.652698         1.016375
 H         2.512084         1.588472         2.704078
 H         1.427036         2.705078         0.855075
