19
Iteration:  3394charge 0 multiplicity 1
 C        -0.097360        -0.480546         0.183386
 C         1.316514        -0.154918         0.143995
 C         2.195765        -0.764464        -0.955105
 C         3.239416         0.301703        -0.581561
 C         3.736478        -0.155214         0.770008
 C         2.386154         0.282399         1.331288
 O         2.177728         0.551747         2.696171
 C         2.104343         1.126315         0.046744
 O         1.898347         2.462503        -0.000204
 H        -0.177275        -1.287390        -0.581693
 H        -0.601985        -0.621568         1.133241
 H        -0.807030         0.348114        -0.236914
 H         2.433207        -1.842788        -1.015493
 H         1.685375        -0.574748        -1.906546
 H         3.968198         0.849486        -1.235347
 H         4.146601        -1.263008         0.745809
 H         4.513056         0.382125         1.215473
 H         1.337132         0.101433         2.986552
 H         1.920969         2.791152        -0.911827
