19
Iteration:  3161
 C        -0.134223        -0.365020         0.381601
 C         1.441960        -0.189229         0.135456
 C         2.216877        -0.876874        -0.947795
 C         3.265789         0.177295        -0.677301
 C         3.841195        -0.147132         0.756415
 C         2.449071         0.307906         1.236153
 O         1.855024         0.636774         2.513458
 C         2.231614         1.092516         0.037429
 O         1.851884         2.458893         0.069484
 H        -0.481306         0.702555         0.088154
 H        -0.575099        -1.070675        -0.380632
 H        -0.425172        -0.693875         1.385268
 H         2.652576        -1.924331        -0.886865
 H         1.759974        -0.867373        -1.951413
 H         3.959711         0.655305        -1.343271
 H         4.174644        -1.214281         0.782087
 H         4.564367         0.530926         1.008341
 H         2.571428         1.003772         3.084965
 H         0.941547         2.325121         0.400866
