19
Iteration:  3819
 C        -0.085647        -0.393628         0.354461
 C         1.276543         0.024878         0.038626
 C         2.130609        -0.507546        -1.067138
 C         3.255710         0.379317        -0.598306
 C         3.749451        -0.226626         0.766117
 C         2.408067         0.264357         1.239152
 O         1.994781        -0.008556         2.537902
 C         2.088470         1.223387         0.114355
 O         2.128374         2.596066         0.120162
 H        -0.573283        -0.758539        -0.559342
 H        -0.003492        -1.381679         0.901715
 H        -0.740961         0.409580         0.771488
 H         2.317113        -1.583833        -1.027678
 H         1.649858        -0.308877        -2.024256
 H         3.834425         0.882500        -1.336630
 H         4.022412        -1.334062         1.042998
 H         4.489416         0.386398         1.184207
 H         2.089942        -0.974212         2.772888
 H         1.277926         3.064057         0.159696
