19
Iteration:  2176charge 0 multiplicity 1
 C        -0.052640        -0.402269         0.461383
 C         1.327697        -0.170631         0.199235
 C         2.303735        -1.028733        -0.634421
 C         3.292957         0.099735        -0.573039
 C         3.711243         0.155798         1.024748
 C         2.294908         0.440811         1.340943
 O         1.964228         0.555982         2.678258
 C         2.144595         1.128749        -0.081759
 O         1.951853         2.393389        -0.733243
 H        -0.620529         0.518815         0.683695
 H        -0.586763        -0.895367        -0.364027
 H        -0.207425        -1.013482         1.307566
 H         2.611090        -1.993760        -0.194157
 H         1.983831        -1.297043        -1.636970
 H         3.942527         0.437076        -1.455527
 H         3.901180        -0.979129         1.262232
 H         4.367637         0.911031         1.468873
 H         2.544862         1.278581         2.968711
 H         1.339115         2.133448        -1.440030
