19
Iteration:  1379charge 0 multiplicity 1
 C        -0.061894        -0.419895         0.390077
 C         1.451073        -0.243906        -0.004155
 C         2.399515        -1.076138        -0.737614
 C         3.426898         0.072850        -0.469895
 C         3.764916         0.085674         1.068211
 C         2.313997         0.472511         1.200980
 O         1.755562         0.670613         2.522871
 C         2.141432         1.090173        -0.133376
 O         1.826632         2.451377        -0.260174
 H        -0.523458         0.538137         0.477360
 H        -0.676837        -0.933376        -0.339014
 H        -0.134770        -1.085731         1.247779
 H         2.628817        -2.102196        -0.330007
 H         2.154444        -1.343539        -1.767299
 H         4.270471         0.188506        -1.118210
 H         3.955949        -0.847243         1.598822
 H         4.491389         0.692650         1.450112
 H         1.248159         1.501022         2.523876
 H         2.234659         2.637862        -1.146876
