19
Iteration:  1310
 C        -0.088506        -0.443808         0.150177
 C         1.452190        -0.216747         0.176797
 C         2.415025        -0.936341        -0.817434
 C         3.486959         0.107957        -0.435525
 C         3.654100        -0.100833         1.156408
 C         2.333986         0.537158         1.336606
 O         1.915218         0.864285         2.603576
 C         2.207620         1.070377        -0.027234
 O         1.655195         2.296834        -0.475676
 H        -0.596642         0.452581         0.507658
 H        -0.579357        -0.655817        -0.821588
 H        -0.430263        -1.319395         0.693830
 H         2.519100        -2.070692        -0.779505
 H         2.228536        -0.872892        -1.897488
 H         4.371656         0.320632        -1.130728
 H         3.778104        -1.138258         1.476217
 H         4.553507         0.377745         1.560720
 H         1.315603         0.146544         2.943530
 H         2.372454         2.949637        -0.504278
