19
Iteration:  4490
 C        -0.230748        -0.129102         0.066834
 C         1.287523        -0.047556        -0.031466
 C         2.161496        -0.214288        -1.292779
 C         3.271268         0.536846        -0.704370
 C         3.681784        -0.329996         0.491935
 C         2.405809        -0.025331         1.087294
 O         2.102012        -0.131738         2.537954
 C         2.178690         1.146605         0.341692
 O         2.014332         2.511032         0.840416
 H        -0.596608        -0.510588        -0.884864
 H        -0.456376        -0.975758         0.679779
 H        -0.739972         0.807157         0.255397
 H         2.333902        -1.218974        -1.510217
 H         1.506467         0.206183        -2.053394
 H         4.254860         0.947525        -1.122223
 H         3.920928        -1.386364         0.227933
 H         4.475348         0.243721         0.851622
 H         2.485426        -0.956078         2.794004
 H         2.090403         2.487647         1.796370
