19
Iteration:  4727charge 0 multiplicity 1
 C        -0.078738        -0.229977         0.264878
 C         1.271023         0.116463        -0.079088
 C         2.118662        -0.018210        -1.375665
 C         3.274920         0.628492        -0.607108
 C         3.760833        -0.448818         0.404439
 C         2.387055        -0.039201         1.075482
 O         1.876226        -0.284465         2.394505
 C         2.262026         1.191919         0.400724
 O         2.057613         2.477755         0.918399
 H        -0.610530        -0.595924        -0.617435
 H         0.029093        -1.117729         0.966393
 H        -0.775465         0.472769         0.726823
 H         2.501535        -1.026373        -1.512987
 H         1.597159         0.564010        -2.175079
 H         3.909567         1.183012        -1.390149
 H         3.805335        -1.406857        -0.080419
 H         4.614823        -0.150967         1.069047
 H         1.341759        -1.120840         2.212710
 H         2.898699         2.656123         1.390837
