19
Iteration:   208charge 0 multiplicity 1
 C        -0.065380        -0.149647         0.163093
 C         1.419887        -0.182108         0.214252
 C         2.290418        -0.972411        -0.806413
 C         3.375424         0.054017        -0.435689
 C         3.775767        -0.117684         0.989072
 C         2.343247         0.397084         1.404073
 O         1.861276         0.727499         2.621398
 C         2.232409         1.073962         0.034181
 O         1.856747         2.333370        -0.456787
 H        -0.606675         0.405475         0.950448
 H        -0.457319         0.174420        -0.834854
 H        -0.433907        -1.174185         0.274221
 H         2.547124        -2.008035        -0.471659
 H         1.947628        -0.926415        -1.787270
 H         4.261272         0.196259        -1.003365
 H         4.133496        -1.104657         1.444115
 H         4.518535         0.669450         1.128093
 H         0.956806         0.312106         2.794842
 H         1.390383         2.218756        -1.300315
