19
Iteration:  1609charge 0 multiplicity 1
 C        -0.055988        -0.668626         0.459229
 C         1.347909        -0.225922         0.235793
 C         2.263130        -0.900360        -0.791803
 C         3.347305         0.151650        -0.471914
 C         3.667754         0.035804         1.011861
 C         2.251367         0.460624         1.309428
 O         1.882768         0.845552         2.604144
 C         2.223779         1.143184        -0.067467
 O         2.014248         2.345243        -0.684331
 H        -0.748211         0.179116         0.367728
 H        -0.436261        -1.316196        -0.392021
 H        -0.302284        -1.312075         1.347614
 H         2.466858        -1.990328        -0.667135
 H         1.824974        -0.692788        -1.762009
 H         4.257788         0.237587        -0.929068
 H         4.100696        -0.967576         1.378703
 H         4.408547         0.837094         1.270404
 H         2.308934         0.127170         3.103545
 H         1.425866         2.872153        -0.098170
