19
Iteration:  3271
 C        -0.135238        -0.426551         0.350555
 C         1.306777        -0.113731         0.173825
 C         2.175008        -0.775743        -0.932699
 C         3.252817         0.246802        -0.585639
 C         3.757320        -0.116378         0.801709
 C         2.413741         0.277042         1.325963
 O         2.089372         0.327815         2.721183
 C         2.166724         1.214488         0.080655
 O         1.991948         2.596817        -0.302306
 H        -0.508649        -1.016221        -0.584655
 H        -0.294457        -1.137117         1.177778
 H        -0.776983         0.482055         0.607197
 H         2.451104        -1.872820        -1.030531
 H         1.712368        -0.418733        -1.880981
 H         3.870622         0.633844        -1.403688
 H         4.267627        -1.102802         0.840884
 H         4.540310         0.433525         1.100283
 H         1.348429        -0.215089         3.044010
 H         1.059232         2.723497        -0.562923
