19
Iteration:   960
 C        -0.144154        -0.426933         0.287132
 C         1.361047        -0.187863         0.085554
 C         2.394292        -1.054277        -0.640952
 C         3.367985         0.111627        -0.538414
 C         3.809292         0.001508         0.973642
 C         2.354895         0.294565         1.241607
 O         1.589577         0.942035         2.204310
 C         2.232567         0.998558        -0.006267
 O         2.066350         2.334733        -0.011613
 H        -0.572667        -0.131356         1.291118
 H        -0.703241         0.250271        -0.430839
 H        -0.385630        -1.459479        -0.019965
 H         2.543938        -1.969513        -0.128506
 H         2.130799        -1.187386        -1.685345
 H         4.219192         0.150817        -1.164213
 H         4.372946        -0.997934         1.182845
 H         4.484891         0.847316         1.242880
 H         2.012703         1.743122         2.469595
 H         1.090612         2.451901        -0.099385
