19
Iteration:  3372charge 0 multiplicity 1
 C        -0.216326        -0.419216         0.214941
 C         1.326507        -0.186061         0.128690
 C         2.255139        -0.739845        -1.015321
 C         3.361962         0.211117        -0.673175
 C         3.819756        -0.222351         0.841537
 C         2.421843         0.191934         1.279811
 O         2.141004         0.647482         2.561649
 C         2.191555         1.189705         0.175409
 O         1.693183         2.458583         0.070971
 H        -0.580703        -1.156668        -0.546979
 H        -0.577654        -0.570477         1.224303
 H        -0.811234         0.554926        -0.017221
 H         2.599529        -1.795196        -1.070717
 H         1.741373        -0.631138        -1.969170
 H         4.178223         0.523687        -1.380334
 H         4.109254        -1.333622         1.089364
 H         4.550303         0.376647         1.274024
 H         1.584075         0.100053         3.121096
 H         2.138578         2.906174        -0.682128
