19
Iteration:  3444
 C        -0.052351        -0.386345         0.563134
 C         1.355891        -0.096879         0.080380
 C         2.243264        -0.714880        -1.002388
 C         3.345593         0.296732        -0.649641
 C         3.794438        -0.134804         0.863660
 C         2.404976         0.257815         1.281824
 O         1.875611         0.279411         2.526398
 C         2.172166         1.201315         0.016975
 O         1.961747         2.554393        -0.113908
 H         0.007092        -1.497220         0.594361
 H        -0.410853         0.158066         1.469696
 H        -0.864478        -0.265128        -0.122018
 H         2.462444        -1.788521        -0.813222
 H         1.822030        -0.711159        -2.028775
 H         4.010088         0.611604        -1.460891
 H         4.090433        -1.145021         1.078933
 H         4.570287         0.632654         1.272140
 H         0.968652        -0.069898         2.431225
 H         0.991896         2.632043        -0.292681
