19
Iteration:   494charge 0 multiplicity 1
 C        -0.013725        -0.639417         0.377088
 C         1.320068        -0.248650         0.103192
 C         2.319830        -0.823935        -0.871147
 C         3.420558         0.163667        -0.376418
 C         3.600923        -0.143439         1.116297
 C         2.109976         0.337315         1.276038
 O         1.672002         0.849475         2.442708
 C         2.205380         1.056084        -0.098299
 O         2.242462         2.443507        -0.399572
 H        -0.427968         0.067594         1.193453
 H        -0.619278        -0.398185        -0.530460
 H        -0.019583        -1.699582         0.800552
 H         2.490107        -2.036354        -0.769971
 H         2.026914        -0.513297        -1.881614
 H         4.250822         0.417653        -1.130924
 H         3.926032        -1.172012         1.206260
 H         4.234093         0.586503         1.643772
 H         2.132622         1.758409         2.541517
 H         2.016252         2.853399         0.476685
