19
Iteration:  1420
 C        -0.049154        -0.432795         0.529706
 C         1.397190        -0.217650         0.228843
 C         2.364061        -0.946086        -0.732428
 C         3.474382         0.213689        -0.494212
 C         3.805582         0.008116         1.057349
 C         2.363348         0.423340         1.282233
 O         1.565473         0.660978         2.382413
 C         2.208081         1.041006        -0.077248
 O         1.898008         2.366000        -0.562788
 H        -0.421683         0.522567         0.925446
 H        -0.665517        -0.573925        -0.405101
 H        -0.161595        -1.360342         1.139222
 H         2.734322        -2.007192        -0.647304
 H         1.945827        -0.903275        -1.756188
 H         4.232215         0.403956        -1.300578
 H         4.140071        -1.086718         1.223038
 H         4.697695         0.550670         1.550774
 H         2.122855         1.074067         3.056573
 H         1.389063         2.843306         0.123808
