19
Iteration:   913
 C        -0.075680        -0.452556         0.202273
 C         1.369014        -0.212764         0.145576
 C         2.375437        -0.918660        -0.804259
 C         3.443388         0.072445        -0.362618
 C         3.640610        -0.184229         1.073983
 C         2.303067         0.482112         1.297214
 O         1.779644         0.835883         2.500321
 C         2.274858         1.087432         0.001162
 O         1.795102         2.336861        -0.433319
 H        -0.442584         0.046870         1.112174
 H        -0.643544         0.006509        -0.619608
 H        -0.257585        -1.548028         0.213112
 H         2.706555        -1.933087        -0.614091
 H         2.136475        -0.792721        -1.803315
 H         4.241036         0.498657        -1.108606
 H         3.784540        -1.245054         1.418099
 H         4.533031         0.446829         1.452825
 H         2.479042         1.192055         3.094833
 H         2.484167         3.049268        -0.291703
