19
Iteration:  3769charge 0 multiplicity 1
 C        -0.028795        -0.325773         0.422103
 C         1.392560        -0.140650         0.087694
 C         2.186531        -0.530470        -1.150326
 C         3.309682         0.411282        -0.582163
 C         3.767525        -0.266040         0.690156
 C         2.423940         0.186744         1.227226
 O         1.937005         0.209456         2.502187
 C         2.151260         1.187990         0.156771
 O         1.907832         2.496626         0.223930
 H        -0.539699         0.659291         0.367104
 H        -0.573051        -0.809362        -0.394650
 H        -0.177242        -0.498084         1.508845
 H         2.365157        -1.622300        -1.312199
 H         1.879369        -0.054635        -2.109282
 H         4.186334         0.653455        -1.256067
 H         3.775761        -1.339633         0.574874
 H         4.685031         0.089579         1.258516
 H         1.256893        -0.450753         2.671517
 H         1.400463         2.764083        -0.553796
