19
Iteration:  1616
 C        -0.071862        -0.647293         0.443615
 C         1.352505        -0.242462         0.184997
 C         2.233930        -0.956894        -0.783946
 C         3.373831         0.155574        -0.492921
 C         3.676943         0.027487         1.008025
 C         2.260644         0.453382         1.320369
 O         1.874609         0.855789         2.641512
 C         2.188305         1.144183        -0.035388
 O         2.054214         2.355811        -0.667218
 H        -0.787891         0.175135         0.548979
 H        -0.302928        -1.351015        -0.379902
 H        -0.170523        -1.075775         1.470010
 H         2.621498        -1.989587        -0.855532
 H         1.846848        -0.751251        -1.797094
 H         4.196928         0.378641        -1.270469
 H         4.118043        -0.820914         1.367971
 H         4.171211         0.966502         1.416515
 H         2.268493         0.117787         3.107610
 H         1.209295         2.737679        -0.372170
