19
Iteration:  4998charge 0 multiplicity 1
 C        -0.161266        -0.220382         0.206765
 C         1.296626         0.103035        -0.068295
 C         1.960012         0.119659        -1.408917
 C         3.340650         0.621060        -0.668839
 C         3.731855        -0.448381         0.350369
 C         2.341844        -0.107668         1.006524
 O         2.046073        -0.392079         2.322630
 C         2.291719         1.260858         0.404684
 O         2.063052         2.451624         1.165444
 H        -0.541094        -0.956020        -0.524511
 H        -0.379239        -0.464973         1.257533
 H        -0.749541         0.701964         0.009150
 H         2.145508        -0.787864        -2.021812
 H         1.473411         0.792336        -2.038805
 H         3.909168         1.223856        -1.378926
 H         4.199677        -1.400641         0.098788
 H         4.430291        -0.121564         1.223801
 H         1.615407        -1.230144         2.431811
 H         2.741814         2.303794         1.866732
