19
Iteration:   767charge 0 multiplicity 1
 C        -0.090039        -0.576900         0.178610
 C         1.351563        -0.257146         0.126488
 C         2.337213        -0.941089        -0.904149
 C         3.447374         0.094294        -0.430058
 C         3.635104        -0.195214         1.119166
 C         2.220510         0.250797         1.342690
 O         1.846575         1.167537         2.460805
 C         2.287121         1.042203        -0.007925
 O         1.846016         2.385489        -0.332900
 H        -0.674928         0.237260         0.575991
 H        -0.453231        -0.897293        -0.791043
 H        -0.180662        -1.331426         0.945101
 H         2.855045        -1.840420        -1.060487
 H         2.036664        -0.657102        -1.918497
 H         4.333106         0.340994        -0.882536
 H         4.057880        -1.216573         1.342510
 H         4.295456         0.575941         1.591452
 H         2.553331         1.097529         3.102225
 H         2.018137         2.819729         0.513572
