19
Iteration:  4316
 C        -0.038791        -0.198825         0.240557
 C         1.353044        -0.020205        -0.014140
 C         2.096628        -0.298232        -1.309540
 C         3.328204         0.403340        -0.681721
 C         3.735941        -0.350508         0.521259
 C         2.463908         0.007190         1.165946
 O         2.041946        -0.086417         2.490938
 C         2.174284         1.200950         0.308047
 O         1.849297         2.505662         0.676988
 H        -0.338866        -1.163806         0.696792
 H        -0.442628         0.632617         0.839519
 H        -0.518087         0.005486        -0.704164
 H         2.088070        -1.318371        -1.793345
 H         1.455222         0.301434        -2.011579
 H         4.184074         0.930666        -1.113159
 H         3.998631        -1.406719         0.262704
 H         4.499399         0.208393         0.976095
 H         1.147157         0.315817         2.629841
 H         2.515765         2.810177         1.359672
