19
Iteration:  2954
 C        -0.105131        -0.519319         0.355359
 C         1.375415        -0.253497         0.143952
 C         2.274191        -0.828896        -0.950383
 C         3.332174         0.196102        -0.596783
 C         3.734328        -0.143216         0.873094
 C         2.312326         0.291685         1.249828
 O         1.940444         0.757854         2.464207
 C         2.179756         1.120591        -0.029530
 O         1.860810         2.415921        -0.063066
 H        -0.629104        -1.172828        -0.363302
 H        -0.366119        -0.969618         1.300593
 H        -0.699339         0.387049         0.437751
 H         2.734192        -1.773978        -0.712943
 H         1.973902        -0.910040        -1.995767
 H         4.049429         0.654971        -1.242033
 H         3.999062        -1.169694         1.056619
 H         4.341540         0.651205         1.468279
 H         2.608263         1.350122         2.825683
 H         2.126373         2.780828         0.825833
