19
Iteration:   936
 C        -0.058285        -0.433629         0.226768
 C         1.382153        -0.245884         0.098760
 C         2.348622        -1.054657        -0.787264
 C         3.457139        -0.001909        -0.538526
 C         3.727650        -0.054172         1.177841
 C         2.284452         0.347735         1.233834
 O         1.706787         0.963856         2.416942
 C         2.213202         1.013229        -0.125560
 O         1.895373         2.468998        -0.207297
 H        -0.474379        -0.158633         1.231545
 H        -0.635258         0.166699        -0.506758
 H        -0.188123        -1.501753        -0.022268
 H         2.541247        -2.066750        -0.481998
 H         1.957194        -1.018046        -1.744016
 H         4.428821         0.232985        -1.147494
 H         4.105953        -1.100560         1.424575
 H         4.566119         0.685756         1.443744
 H         2.468280         1.385803         2.890493
 H         1.527295         2.578338         0.688951
