19
Iteration:   768
 C        -0.089900        -0.567678         0.177768
 C         1.363458        -0.249441         0.128988
 C         2.329599        -0.949735        -0.910913
 C         3.446537         0.096567        -0.434495
 C         3.647028        -0.199605         1.119623
 C         2.224763         0.249114         1.345275
 O         1.833995         1.156117         2.468005
 C         2.287890         1.046744        -0.007609
 O         1.840840         2.383540        -0.341698
 H        -0.663653         0.281770         0.545734
 H        -0.477037        -0.882691        -0.793250
 H        -0.200232        -1.306499         0.986773
 H         2.861598        -1.843783        -1.037334
 H         2.047280        -0.664465        -1.880421
 H         4.348529         0.335598        -0.904562
 H         4.088725        -1.213944         1.388842
 H         4.337141         0.602166         1.574879
 H         2.565744         1.095233         3.126945
 H         1.969937         2.829965         0.509776
