19
Iteration:  4718
 C        -0.105304        -0.155862         0.308128
 C         1.351798         0.184794        -0.129316
 C         2.133980        -0.069766        -1.444684
 C         3.273294         0.621410        -0.637658
 C         3.781735        -0.432112         0.404243
 C         2.440270        -0.085649         1.168250
 O         1.873339        -0.281860         2.392417
 C         2.234376         1.196764         0.431067
 O         1.982991         2.426237         0.897258
 H        -0.698388        -0.384605        -0.579731
 H        -0.122051        -1.170101         0.779972
 H        -0.534420         0.595665         0.976200
 H         2.172651        -1.093601        -1.876186
 H         1.653966         0.403797        -2.262197
 H         4.070270         1.266611        -1.134315
 H         3.933314        -1.496489         0.072518
 H         4.713262        -0.164030         0.892629
 H         1.345977        -1.138973         2.339221
 H         2.644905         2.713362         1.555318
