19
Iteration:   580
 C        -0.143598        -0.171931         0.084806
 C         1.365579        -0.234372         0.121840
 C         2.457574        -1.005209        -0.787667
 C         3.436846         0.154299        -0.367570
 C         3.749889        -0.098937         1.080955
 C         2.271074         0.404549         1.363925
 O         1.896623         0.700707         2.586886
 C         2.107517         0.996470        -0.016782
 O         1.829800         2.274279        -0.423977
 H        -0.623868         0.792685         0.378874
 H        -0.510873        -0.498596        -0.894528
 H        -0.549156        -0.801195         0.873956
 H         2.704927        -2.062690        -0.605952
 H         2.145113        -0.839186        -1.820454
 H         4.201780         0.542038        -1.114825
 H         4.146708        -1.138036         1.279341
 H         4.497985         0.614893         1.437711
 H         1.205478         1.372274         2.592708
 H         2.417984         2.839466         0.084199
