19
Iteration:   739charge 0 multiplicity 1
 C        -0.088266        -0.780113         0.145370
 C         1.281222        -0.225122         0.071736
 C         2.303271        -0.953538        -0.761866
 C         3.375859         0.110936        -0.448435
 C         3.643768        -0.205852         1.151616
 C         2.342529         0.473320         1.232527
 O         1.885330         1.198846         2.334524
 C         2.152030         1.064431        -0.091758
 O         1.974760         2.442227        -0.148255
 H        -0.600722        -0.279866         0.995109
 H        -0.631222        -0.626912        -0.812274
 H        -0.083608        -1.887496         0.407337
 H         2.770741        -1.965297        -0.497035
 H         2.095473        -1.068172        -1.843287
 H         4.310768         0.411239        -1.031217
 H         3.605326        -1.254028         1.425747
 H         4.527721         0.301670         1.571180
 H         1.936527         0.622601         3.078118
 H         2.377264         2.677501         0.695202
