19
Iteration:   505
 C        -0.081590        -0.570811         0.480109
 C         1.386495        -0.226205         0.116581
 C         2.395239        -0.888285        -0.884253
 C         3.396016         0.163815        -0.409194
 C         3.578957        -0.149502         1.056101
 C         2.211688         0.278076         1.221765
 O         1.569660         0.871470         2.354993
 C         2.244563         1.116530        -0.050131
 O         2.207123         2.442868        -0.335463
 H        -0.633631         0.115170         1.206090
 H        -0.687520        -0.687455        -0.455800
 H        -0.214902        -1.650769         0.817744
 H         2.731051        -2.061744        -0.776072
 H         2.035012        -0.740434        -1.903921
 H         4.328373         0.391354        -1.027726
 H         3.890851        -1.126157         1.418106
 H         4.309347         0.573561         1.449576
 H         2.309474         1.426176         2.685516
 H         2.121262         3.023361         0.460094
