19
Iteration:  1584
 C        -0.004548        -0.563067         0.425441
 C         1.370150        -0.159696         0.140225
 C         2.297756        -1.020050        -0.707162
 C         3.382104         0.154781        -0.505242
 C         3.801051        -0.135915         1.028210
 C         2.384376         0.509605         1.293520
 O         1.770510         0.912161         2.516841
 C         2.155460         1.116833        -0.014523
 O         1.780085         2.368462        -0.571327
 H        -0.743193         0.224836         0.591730
 H        -0.516987        -1.092716        -0.452689
 H        -0.031113        -1.414789         1.164083
 H         2.633737        -2.057486        -0.509267
 H         1.907864        -0.948282        -1.723545
 H         4.221039         0.360488        -1.140056
 H         3.985450        -1.131513         1.291956
 H         4.538719         0.512011         1.634880
 H         2.202899         0.217329         3.076076
 H         2.542887         2.996878        -0.427684
