19
Iteration:  4173charge 0 multiplicity 1
 C        -0.078646        -0.215026         0.416745
 C         1.337128         0.033671        -0.052753
 C         2.099190        -0.276389        -1.329013
 C         3.373236         0.444606        -0.575109
 C         3.792206        -0.378660         0.648583
 C         2.483908         0.082569         1.251332
 O         1.908796        -0.161760         2.521126
 C         2.262938         1.247347         0.257310
 O         1.773155         2.536284         0.300280
 H        -0.294474         0.642526         1.071542
 H        -0.829442        -0.193661        -0.386320
 H        -0.169527        -1.154743         1.004670
 H         2.305951        -1.312882        -1.602152
 H         1.740429         0.207110        -2.240144
 H         4.175180         0.935248        -1.067114
 H         3.886491        -1.487872         0.301167
 H         4.671121        -0.046784         1.128101
 H         2.122645        -0.977386         3.024360
 H         2.434782         3.097448         0.800938
