19
Iteration:  1618charge 0 multiplicity 1
 C        -0.079544        -0.631956         0.440769
 C         1.357382        -0.239262         0.173429
 C         2.237018        -0.971480        -0.790456
 C         3.385575         0.155683        -0.506847
 C         3.683719         0.029997         1.012095
 C         2.264738         0.451855         1.317066
 O         1.872442         0.854980         2.647101
 C         2.172467         1.129704        -0.026022
 O         2.063145         2.363178        -0.658494
 H        -0.794291         0.172414         0.577120
 H        -0.305949        -1.386985        -0.387449
 H        -0.100936        -1.034035         1.512475
 H         2.642857        -1.994404        -0.855760
 H         1.872128        -0.779544        -1.786286
 H         4.005859         0.422661        -1.300347
 H         4.127388        -0.822816         1.394822
 H         4.157917         0.986465         1.441211
 H         2.226699         0.127785         3.194571
 H         1.147819         2.704007        -0.487075
