19
Iteration:  2235charge 0 multiplicity 1
 C         0.062432        -0.234838         0.439811
 C         1.522317        -0.202419         0.258809
 C         2.313212        -1.059398        -0.726450
 C         3.409913        -0.054073        -0.527656
 C         3.793733        -0.097727         1.010126
 C         2.420820         0.423721         1.248968
 O         1.743098         0.922691         2.390806
 C         2.272076         1.030617        -0.090797
 O         1.564353         2.295623        -0.325022
 H        -0.096036         0.225415         1.418991
 H        -0.473913         0.265942        -0.362497
 H        -0.180307        -1.373062         0.541466
 H         2.490734        -2.136234        -0.543431
 H         1.936900        -0.910883        -1.746706
 H         4.196600         0.175851        -1.191194
 H         4.259544        -1.013005         1.085091
 H         4.546294         0.753618         1.371508
 H         2.054863         1.835465         2.649681
 H         1.002549         1.983909        -1.058639
