19
Iteration:  3666charge 0 multiplicity 1
 C        -0.130006        -0.348217         0.255211
 C         1.340156        -0.101976         0.075978
 C         2.111923        -0.590347        -1.064441
 C         3.282030         0.361277        -0.640333
 C         3.786513        -0.191958         0.831041
 C         2.395479         0.181146         1.270906
 O         2.038057         0.226911         2.612182
 C         2.194124         1.172593         0.175153
 O         1.959243         2.563975         0.068122
 H        -0.282055        -1.452236         0.477349
 H        -0.658853         0.207356         0.993920
 H        -0.547332        -0.015901        -0.743990
 H         2.511667        -1.642200        -1.037983
 H         1.652464        -0.341233        -2.057056
 H         3.990783         0.838855        -1.330327
 H         4.034182        -1.294670         0.853178
 H         4.611141         0.314060         1.218933
 H         2.051661        -0.693255         2.950309
 H         1.126407         2.608113        -0.462516
