19
Iteration:  1109charge 0 multiplicity 1
 C        -0.018871        -0.088374         0.276663
 C         1.458755        -0.254852         0.100083
 C         2.462402        -1.101771        -0.610135
 C         3.484313         0.181445        -0.503111
 C         3.765766         0.060460         1.093683
 C         2.235311         0.357915         1.253199
 O         1.566963         0.600114         2.485729
 C         2.188933         0.999736        -0.194077
 O         1.833600         2.326465        -0.398912
 H        -0.184363         0.948380         0.529317
 H        -0.534917        -0.389421        -0.612654
 H        -0.467250        -0.683506         1.076678
 H         2.783115        -2.176564        -0.266521
 H         2.202769        -1.145321        -1.712618
 H         4.377201         0.369211        -1.276384
 H         4.227501        -0.834168         1.448631
 H         4.381722         0.946954         1.422544
 H         2.220549         0.337083         3.159527
 H         1.849320         2.910322         0.403475
