19
Iteration:   579charge 0 multiplicity 1
 C        -0.146508        -0.173658         0.090994
 C         1.360423        -0.234194         0.125725
 C         2.457284        -1.017750        -0.782489
 C         3.442396         0.155254        -0.368340
 C         3.760438        -0.098125         1.081351
 C         2.268663         0.402827         1.356466
 O         1.892675         0.703937         2.581647
 C         2.104931         0.999152        -0.028937
 O         1.831887         2.282812        -0.417314
 H        -0.601549         0.794491         0.384132
 H        -0.520085        -0.505454        -0.876814
 H        -0.548832        -0.803169         0.871576
 H         2.672095        -2.033179        -0.615566
 H         2.163901        -0.843484        -1.836697
 H         4.232093         0.539055        -1.110269
 H         4.153927        -1.151656         1.290197
 H         4.507009         0.608203         1.443771
 H         1.175153         1.322467         2.577353
 H         2.399182         2.843083         0.117170
