19
Iteration:  2899
 C         0.020894        -0.320469         0.560108
 C         1.459280        -0.051691         0.190982
 C         2.228945        -0.824825        -0.847481
 C         3.353334         0.195096        -0.566465
 C         3.820574        -0.070046         0.921389
 C         2.383610         0.370450         1.277384
 O         1.759028         0.298703         2.505480
 C         2.209209         1.204064         0.015547
 O         1.723963         2.372346        -0.461979
 H        -0.591164         0.422354        -0.033118
 H        -0.153299        -1.314811         0.166942
 H        -0.182765        -0.137839         1.610499
 H         2.388196        -1.907615        -0.850219
 H         1.940399        -0.670203        -1.898435
 H         4.053932         0.435060        -1.381099
 H         4.073038        -1.082608         1.095820
 H         4.620407         0.538092         1.568282
 H         2.207969         0.863577         3.157215
 H         2.391255         3.046053        -0.186880
