19
Iteration:  2042
 C        -0.166626        -0.547946         0.268081
 C         1.373124        -0.296280         0.300080
 C         2.330917        -1.172840        -0.668309
 C         3.264940         0.068414        -0.615019
 C         3.801555         0.052619         0.917279
 C         2.398421         0.497276         1.283072
 O         2.018901         1.024579         2.516009
 C         2.041941         1.016534        -0.030793
 O         1.876620         2.363625        -0.267667
 H        -0.840381        -0.002017         0.925362
 H        -0.314677        -0.143793        -0.740267
 H        -0.400023        -1.593969         0.204293
 H         2.699194        -2.049305        -0.124177
 H         2.015549        -1.313630        -1.713334
 H         3.981472         0.222297        -1.437117
 H         4.192461        -0.937573         1.404621
 H         4.526744         0.733506         1.220963
 H         2.230778         1.957840         2.408334
 H         1.251248         2.478417        -0.994453
