19
Iteration:  1707
 C        -0.103543        -0.267585         0.425342
 C         1.425442        -0.264863         0.192364
 C         2.357216        -1.025309        -0.758958
 C         3.456416         0.116372        -0.514069
 C         3.854704        -0.035601         1.033642
 C         2.369831         0.407334         1.296368
 O         1.955479         0.936955         2.514944
 C         2.213357         0.997204        -0.141167
 O         1.582530         2.216198        -0.485236
 H        -0.453371         0.625565         0.999510
 H        -0.603399        -0.223230        -0.575977
 H        -0.627725        -1.096828         0.994463
 H         2.829207        -1.996784        -0.505432
 H         2.005802        -1.100624        -1.789107
 H         4.220084         0.111852        -1.216943
 H         4.257445        -0.929482         1.377421
 H         4.557855         0.757484         1.388009
 H         1.038582         0.636755         2.600505
 H         1.487396         2.606791         0.409293
