19
Iteration:  3238charge 0 multiplicity 1
 C        -0.109716        -0.473371         0.391454
 C         1.372044        -0.081073         0.147069
 C         2.144570        -0.777405        -0.917811
 C         3.271827         0.242031        -0.619276
 C         3.733461        -0.208222         0.801320
 C         2.366980         0.323917         1.334992
 O         2.104108         0.437303         2.587249
 C         2.212508         1.196893         0.077864
 O         1.891124         2.530534        -0.129221
 H        -0.726030        -0.517324        -0.619568
 H         0.018389        -1.512561         0.713851
 H        -0.708566         0.170338         1.086940
 H         2.456440        -1.856683        -0.914747
 H         1.970005        -0.409906        -1.944910
 H         3.908008         0.665129        -1.392058
 H         3.924778        -1.310920         0.829746
 H         4.492729         0.387567         1.092367
 H         1.201882         0.389638         2.885420
 H         1.848758         2.809976        -1.065935
