19
Iteration:  1594
 C        -0.088743        -0.640693         0.410100
 C         1.390392        -0.167735         0.238037
 C         2.288091        -0.906139        -0.735088
 C         3.382199         0.115020        -0.452829
 C         3.728963        -0.075111         1.074653
 C         2.387747         0.495043         1.308200
 O         1.840194         0.843917         2.505154
 C         2.150250         1.127726        -0.084030
 O         1.859478         2.370633        -0.655036
 H        -0.820240         0.134844         0.656239
 H        -0.259110        -1.199096        -0.522073
 H        -0.127826        -1.272195         1.316764
 H         2.581177        -1.963632        -0.540457
 H         1.940574        -0.840021        -1.780882
 H         3.953328         0.457754        -1.323527
 H         3.800497        -1.040779         1.415499
 H         4.616606         0.551386         1.373236
 H         2.179134         0.326990         3.281838
 H         2.267827         3.016693        -0.031521
