19
Iteration:  3010charge 0 multiplicity 1
 C        -0.104525        -0.434788         0.267085
 C         1.381499        -0.174677         0.226288
 C         2.247714        -0.900779        -0.855252
 C         3.329969         0.215039        -0.633147
 C         3.800738        -0.115239         0.780764
 C         2.374651         0.224448         1.277856
 O         1.976429         0.634771         2.542012
 C         2.143506         1.086964        -0.057632
 O         1.842620         2.488338         0.037147
 H        -0.325855        -1.404594         0.721143
 H        -0.549276         0.261252         0.912822
 H        -0.641992        -0.458324        -0.688665
 H         2.605840        -1.878883        -0.653834
 H         1.683667        -0.694274        -1.742948
 H         4.047867         0.589078        -1.370809
 H         4.226060        -1.100925         0.966728
 H         4.638464         0.553747         1.235945
 H         2.058386         1.611229         2.595913
 H         1.272591         2.706871        -0.729749
