19
Iteration:  4693
 C        -0.078167         0.072012         0.323368
 C         1.387960         0.034424        -0.082293
 C         2.148427        -0.040041        -1.376649
 C         3.355216         0.531009        -0.657423
 C         3.790808        -0.434476         0.475728
 C         2.358031        -0.119365         1.074966
 O         1.991615        -0.349778         2.401286
 C         2.259829         1.223739         0.369191
 O         1.787132         2.435176         0.829998
 H        -0.679783         0.631208        -0.400954
 H        -0.484132        -0.961175         0.285238
 H        -0.140051         0.438990         1.354442
 H         2.223596        -0.965000        -1.909774
 H         1.588325         0.567612        -2.126887
 H         4.097365         0.938274        -1.388010
 H         4.074070        -1.433010         0.239735
 H         4.591399        -0.047129         1.179056
 H         1.836505        -1.310573         2.373686
 H         1.969617         2.516606         1.763714
