19
Iteration:  4614
 C        -0.171544        -0.028498         0.152118
 C         1.329277         0.131900         0.015329
 C         2.070393        -0.154306        -1.320409
 C         3.284316         0.535880        -0.631987
 C         3.718172        -0.377254         0.503858
 C         2.444031        -0.107922         1.149880
 O         2.181495        -0.473813         2.455856
 C         2.248230         1.227699         0.395538
 O         1.852605         2.532285         0.737774
 H        -0.537388         0.284587         1.139990
 H        -0.619378         0.612938        -0.586106
 H        -0.501287        -1.001431        -0.175527
 H         2.205327        -1.036876        -1.862634
 H         1.687975         0.660852        -1.947305
 H         3.876823         1.149366        -1.238399
 H         3.928325        -1.422354         0.380383
 H         4.510761         0.079753         1.110704
 H         1.357186        -0.952242         2.480290
 H         2.680918         2.902911         1.028810
