19
Iteration:   187
 C        -0.073784        -0.088222         0.005062
 C         1.429395        -0.139515         0.324625
 C         2.219936        -0.963664        -0.616142
 C         3.403411         0.112963        -0.549145
 C         3.816843        -0.053202         1.080806
 C         2.363438         0.381626         1.403904
 O         1.870468         0.603406         2.677852
 C         2.328332         1.069598        -0.004251
 O         1.821507         2.247254        -0.609281
 H        -0.536226         0.515411         0.777105
 H        -0.196759         0.471037        -0.916972
 H        -0.623792        -0.983002        -0.052520
 H         2.363609        -2.030932        -0.307500
 H         1.700736        -0.845616        -1.565180
 H         3.877396         0.562428        -1.394895
 H         4.118385        -1.084859         1.335837
 H         4.471250         0.692674         1.476734
 H         1.262649        -0.069770         2.885705
 H         0.853726         2.294239        -0.500167
