19
Iteration:  2005
 C        -0.096856        -0.447176         0.512549
 C         1.326930        -0.178945         0.194072
 C         2.302012        -1.006333        -0.681725
 C         3.403617         0.073840        -0.563450
 C         3.783001         0.049637         1.003210
 C         2.394290         0.488238         1.283334
 O         1.914507         0.807446         2.578185
 C         2.168932         1.061173        -0.078230
 O         1.772745         2.309295        -0.553618
 H        -0.660159        -0.283786         1.423290
 H        -0.661669        -0.056003        -0.324355
 H        -0.172221        -1.539716         0.251577
 H         2.536942        -2.049031        -0.426726
 H         2.017681        -1.112967        -1.749664
 H         4.209375         0.154683        -1.265363
 H         4.085791        -0.981901         1.322911
 H         4.479347         0.948028         1.256187
 H         2.530307         1.353519         3.107681
 H         1.450992         2.191554        -1.455641
