19
Iteration:   386
 C        -0.014144         0.065970         0.194919
 C         1.510158        -0.198404         0.188463
 C         2.365998        -1.017818        -0.777468
 C         3.479697         0.107218        -0.397103
 C         3.753272        -0.122178         1.085487
 C         2.334247         0.384850         1.336848
 O         1.724172         0.688684         2.551657
 C         2.308341         1.079579         0.037986
 O         1.638157         2.114659        -0.484620
 H        -0.142324         1.112244         0.517855
 H        -0.439188        -0.022317        -0.805267
 H        -0.597019        -0.641664         0.804964
 H         2.570582        -2.042107        -0.605026
 H         2.072763        -0.968885        -1.792923
 H         4.317184         0.411087        -1.124429
 H         4.162516        -1.081463         1.464801
 H         4.524212         0.689796         1.412115
 H         0.814265         0.262896         2.406153
 H         2.261567         2.795804        -0.804980
