19
Iteration:  2372
 C        -0.026613        -0.375444         0.577162
 C         1.426683        -0.175963         0.145598
 C         2.301473        -0.999433        -0.786510
 C         3.419091         0.087527        -0.423493
 C         3.749304        -0.033978         1.039316
 C         2.389497         0.490274         1.314681
 O         1.870229         0.722931         2.521238
 C         2.188003         1.076047        -0.109351
 O         1.796250         2.332687        -0.573488
 H        -0.394686         0.558231         1.133789
 H        -0.849866        -0.456738        -0.233214
 H        -0.284874        -1.162302         1.262846
 H         2.666452        -2.047738        -0.705285
 H         2.156534        -0.619980        -1.843823
 H         4.151799         0.301698        -1.178621
 H         3.905715        -1.017252         1.533631
 H         4.610898         0.442026         1.314475
 H         0.983977         1.050866         2.381959
 H         1.227952         2.205038        -1.350859
