19
Iteration:   523
 C        -0.074639        -0.505281         0.437863
 C         1.346627        -0.184337         0.020371
 C         2.346696        -0.998209        -0.847647
 C         3.441330         0.092357        -0.495959
 C         3.787456        -0.166043         1.119892
 C         2.311876         0.459382         1.265877
 O         1.482256         0.852773         2.299419
 C         2.283302         1.069234        -0.058224
 O         2.080854         2.491433        -0.258678
 H        -0.385321         0.391245         0.951015
 H        -0.837462        -0.649129        -0.324662
 H        -0.117445        -1.388908         1.055647
 H         2.511526        -1.961511        -0.470801
 H         2.056168        -1.137702        -1.933954
 H         4.101235         0.314196        -1.379561
 H         4.042546        -1.259546         1.325257
 H         4.624774         0.426486         1.493571
 H         1.841801         0.767623         3.190311
 H         2.033952         2.768038         0.688292
