19
Iteration:  3109
 C        -0.131003        -0.381016         0.365327
 C         1.402992        -0.137161         0.141040
 C         2.254041        -0.752638        -0.907249
 C         3.345345         0.245716        -0.607993
 C         3.687846        -0.114693         0.834421
 C         2.375089         0.303127         1.284628
 O         2.018671         0.350720         2.679842
 C         2.114322         1.187261         0.096277
 O         1.773550         2.458930        -0.320943
 H        -0.638883         0.346899         1.024054
 H        -0.736690        -0.431245        -0.486216
 H        -0.198678        -1.396313         0.843703
 H         2.480982        -1.809074        -0.820123
 H         1.834466        -0.549855        -1.893222
 H         4.167214         0.512444        -1.329455
 H         4.035870        -1.165908         1.054420
 H         4.558906         0.540867         1.379275
 H         2.806515         0.839114         3.038213
 H         2.620458         2.916102        -0.456859
