19
Iteration:  4657charge 0 multiplicity 1
 C        -0.158097         0.244613         0.112396
 C         1.301448         0.072705        -0.078301
 C         2.163500        -0.192595        -1.357159
 C         3.227863         0.664171        -0.660059
 C         3.872784        -0.420792         0.423642
 C         2.393033        -0.129335         1.174718
 O         2.177413        -0.515981         2.588262
 C         2.191938         1.185935         0.510944
 O         1.762439         2.423361         0.687803
 H        -0.395380         1.307342         0.316383
 H        -0.787106        -0.119356        -0.711060
 H        -0.566136        -0.301484         0.980663
 H         2.373232        -1.242302        -1.588494
 H         1.649972         0.377021        -2.183956
 H         3.956331         1.200217        -1.171150
 H         4.123706        -1.372138        -0.054533
 H         4.727439         0.023100         0.925903
 H         2.042709        -1.473491         2.740678
 H         2.131237         2.927048         1.413409
