19
Iteration:  1670
 C         0.035882        -0.323224         0.536508
 C         1.481387        -0.191778         0.197724
 C         2.327461        -1.080533        -0.676175
 C         3.403557         0.074442        -0.584116
 C         3.824719        -0.002934         1.021377
 C         2.402769         0.362972         1.228548
 O         1.733861         0.842904         2.439608
 C         2.230156         1.060290        -0.199935
 O         1.628529         2.370675        -0.344565
 H        -0.387349         0.672981         0.592588
 H        -0.359877        -0.787674        -0.371883
 H        -0.184732        -0.889344         1.422299
 H         2.748028        -2.034405        -0.270198
 H         1.896424        -1.225733        -1.685743
 H         4.335699         0.071455        -1.260724
 H         4.158304        -1.048464         1.329337
 H         4.620650         0.787322         1.229693
 H         1.070362         0.216784         2.719477
 H         2.023068         3.006859        -0.945906
