19
Iteration:  2604charge 0 multiplicity 1
 C        -0.205524        -0.306428         0.154118
 C         1.400943        -0.236669         0.221520
 C         2.297653        -1.078278        -0.791467
 C         3.473037         0.118557        -0.623696
 C         3.790459         0.016351         0.931759
 C         2.388149         0.373257         1.271536
 O         1.914162         0.755991         2.616193
 C         2.190018         1.035786        -0.055777
 O         1.744300         2.356154        -0.145103
 H        -0.483185         0.487441         0.872386
 H        -0.437208        -0.045047        -0.841898
 H        -0.594430        -1.226665         0.533089
 H         2.559734        -2.088887        -0.471332
 H         2.003134        -1.128036        -1.861523
 H         4.349339         0.263888        -1.315927
 H         4.277180        -0.929559         1.401788
 H         4.453035         0.855310         1.297264
 H         2.538964         1.467236         2.873064
 H         0.977566         2.446059        -0.740756
