19
Iteration:  2571charge 0 multiplicity 1
 C        -0.099160        -0.537419         0.282440
 C         1.394298        -0.130691         0.217292
 C         2.251622        -0.927173        -0.762753
 C         3.352368         0.186511        -0.594599
 C         3.761531        -0.114030         0.937046
 C         2.341571         0.361313         1.345752
 O         1.888022         0.716250         2.586081
 C         2.157664         1.137541        -0.021022
 O         1.921667         2.420972        -0.311694
 H        -0.407992        -0.679960         1.345656
 H        -0.813135         0.174420        -0.111232
 H        -0.225191        -1.410786        -0.327826
 H         2.514627        -1.908553        -0.348439
 H         1.938963        -1.050507        -1.842592
 H         4.197871         0.389963        -1.314700
 H         4.055148        -1.187618         1.172999
 H         4.467061         0.624892         1.295782
 H         2.081811         1.681429         2.682839
 H         1.517890         2.433169        -1.213104
