19
Iteration:  2926charge 0 multiplicity 1
 C        -0.005219        -0.437421         0.502542
 C         1.415472        -0.152295         0.094086
 C         2.267061        -0.839369        -0.911705
 C         3.402776         0.139846        -0.601333
 C         3.831399        -0.133755         0.877101
 C         2.360668         0.339580         1.255038
 O         1.746250         0.575904         2.508017
 C         2.188760         1.169117        -0.025559
 O         1.740610         2.477871        -0.217355
 H        -0.741234        -0.434349        -0.310987
 H        -0.088036        -1.448506         1.021904
 H        -0.313996         0.386367         1.242633
 H         2.514452        -1.933652        -0.738959
 H         2.020453        -0.894040        -1.987924
 H         4.121353         0.421949        -1.402344
 H         3.995181        -1.258590         1.000741
 H         4.500693         0.465725         1.435638
 H         2.409588         0.731137         3.194046
 H         2.445989         3.048400         0.176194
