19
Iteration:  2516charge 0 multiplicity 1
 C         0.046038        -0.537554         0.699174
 C         1.339496        -0.143078         0.065559
 C         2.255463        -0.941055        -0.874872
 C         3.381996         0.173437        -0.494671
 C         3.727291        -0.080679         0.984965
 C         2.284123         0.380941         1.217240
 O         1.615671         0.683263         2.406041
 C         2.330018         1.140556        -0.103378
 O         2.005822         2.445904        -0.312970
 H         0.000425        -1.692324         0.811271
 H        -0.009348        -0.156379         1.710255
 H        -0.957547        -0.444550         0.304462
 H         2.563949        -1.993204        -0.670833
 H         2.249742        -0.670612        -1.956448
 H         4.176916         0.300295        -1.255793
 H         4.122289        -1.091353         1.268041
 H         4.413084         0.595675         1.444546
 H         1.811547         1.611564         2.648900
 H         1.506094         2.538388        -1.157697
