19
Iteration:   124charge 0 multiplicity 1
 C        -0.087124        -0.166535         0.335083
 C         1.414682        -0.168025         0.144603
 C         2.397910        -0.972046        -0.819966
 C         3.443647         0.054670        -0.411400
 C         3.738504        -0.116865         1.036853
 C         2.295836         0.370733         1.338475
 O         1.693141         0.779862         2.463411
 C         2.314644         1.062247         0.036945
 O         1.808406         2.269155        -0.434254
 H        -0.422373         0.552709         1.109260
 H        -0.580821         0.168785        -0.590909
 H        -0.432926        -1.158900         0.650439
 H         2.450244        -2.067793        -0.782730
 H         2.176194        -0.591104        -1.897863
 H         4.168728         0.408998        -1.194900
 H         3.975940        -1.156817         1.301030
 H         4.490281         0.594332         1.459726
 H         1.570291         0.139532         3.131733
 H         2.554339         2.526730        -1.009508
