19
Iteration:  3870charge 0 multiplicity 1
 C        -0.090940        -0.242777         0.344780
 C         1.334906        -0.082983        -0.018013
 C         2.126149        -0.472626        -1.213583
 C         3.292369         0.405232        -0.582615
 C         3.802486        -0.269313         0.732947
 C         2.467215         0.149094         1.222046
 O         1.976857         0.234570         2.492056
 C         2.231196         1.096387         0.216351
 O         1.877884         2.425561         0.254266
 H        -0.371747        -1.322014         0.370219
 H        -0.387918         0.289303         1.302420
 H        -0.712188         0.137554        -0.459353
 H         2.194081        -1.568983        -1.365152
 H         1.635483        -0.065829        -2.116281
 H         3.933976         0.920324        -1.267876
 H         3.990902        -1.286485         0.454318
 H         4.784312         0.184057         1.216686
 H         1.629635        -0.592628         2.881011
 H         1.873837         2.711602         1.200191
