19
Iteration:  3111
 C        -0.159591        -0.386305         0.357463
 C         1.400006        -0.156475         0.147553
 C         2.251570        -0.759939        -0.911774
 C         3.344883         0.270337        -0.591542
 C         3.696996        -0.132483         0.833793
 C         2.361540         0.297605         1.279160
 O         2.032926         0.364893         2.676908
 C         2.131810         1.185404         0.086703
 O         1.772732         2.470477        -0.314923
 H        -0.562063         0.368328         0.967164
 H        -0.751571        -0.495111        -0.535258
 H        -0.168691        -1.390472         0.881876
 H         2.428689        -1.812654        -0.830397
 H         1.845394        -0.599337        -1.908515
 H         4.185699         0.431583        -1.331400
 H         4.035683        -1.143472         1.087833
 H         4.546313         0.606339         1.332673
 H         2.818542         0.807068         3.074925
 H         2.594088         3.009189        -0.373392
