19
Iteration:   602
 C        -0.053413        -0.254650        -0.006626
 C         1.411221        -0.177488         0.194296
 C         2.311807        -0.929262        -0.867064
 C         3.433534         0.197315        -0.464041
 C         3.729501        -0.142846         1.118983
 C         2.228197         0.318092         1.460662
 O         1.860362         0.680658         2.777333
 C         2.277520         1.132332         0.045738
 O         1.730237         2.211555        -0.554081
 H        -0.413414         0.750941         0.337688
 H        -0.271985        -0.414720        -1.064137
 H        -0.635913        -0.886655         0.650944
 H         2.457398        -1.975797        -0.685894
 H         2.052439        -0.792356        -1.909851
 H         4.387976         0.446328        -1.016491
 H         3.988531        -1.176770         1.505253
 H         4.470655         0.566934         1.514426
 H         2.277028         1.595782         2.856301
 H         2.365356         2.846678        -0.964129
