19
Iteration:  3530charge 0 multiplicity 1
 C        -0.207175        -0.261129         0.119781
 C         1.394689        -0.218214         0.177971
 C         2.256441        -0.761556        -1.065558
 C         3.319143         0.283268        -0.634274
 C         3.739427        -0.214459         0.766255
 C         2.381595         0.210352         1.260060
 O         2.099243         0.447942         2.744490
 C         2.210859         1.143592         0.100319
 O         1.771627         2.503417         0.121228
 H        -0.737311         0.450868         0.795818
 H        -0.486141        -0.032238        -1.029193
 H        -0.617359        -1.257558         0.192542
 H         2.486861        -1.851124        -0.950675
 H         1.658962        -0.585437        -2.001300
 H         3.925650         0.666148        -1.464194
 H         4.080154        -1.186820         0.835408
 H         4.637632         0.470291         1.139014
 H         2.799069        -0.007974         3.211506
 H         1.381942         2.898224        -0.677729
