19
Iteration:  4633
 C        -0.197589         0.150320         0.030915
 C         1.353088        -0.067839         0.077233
 C         2.031937        -0.101493        -1.241659
 C         3.256982         0.610376        -0.640211
 C         3.770325        -0.360166         0.510460
 C         2.423175        -0.088827         1.150259
 O         2.230528        -0.512730         2.476674
 C         2.261017         1.221142         0.430208
 O         1.818206         2.465182         0.707618
 H        -0.598969         0.947314         0.694439
 H        -0.533849         0.376297        -1.005357
 H        -0.779175        -0.770017         0.286172
 H         2.194737        -1.206542        -1.517694
 H         1.466499         0.453701        -2.024990
 H         4.041391         1.118219        -1.242531
 H         4.052210        -1.381534         0.091865
 H         4.523015         0.071425         1.122664
 H         1.720857        -1.314159         2.482300
 H         2.555513         3.044957         0.961477
