19
Iteration:  3363charge 0 multiplicity 1
 C        -0.170679        -0.322748         0.307081
 C         1.400149        -0.141923         0.103938
 C         2.243629        -0.787257        -1.061527
 C         3.373183         0.187830        -0.592837
 C         3.783422        -0.235155         0.844788
 C         2.421745         0.225583         1.275830
 O         2.087934         0.660410         2.495579
 C         2.225455         1.074435         0.073044
 O         1.624408         2.450287         0.119073
 H        -0.338815        -1.072276        -0.431014
 H        -0.666074        -0.721829         1.250926
 H        -0.663300         0.645312        -0.051473
 H         2.506785        -1.877177        -0.963392
 H         1.750565        -0.483320        -2.005633
 H         4.168197         0.651185        -1.171649
 H         4.216179        -1.189225         0.967605
 H         4.600579         0.355509         1.333497
 H         1.816924        -0.159167         2.928336
 H         2.086944         3.044006        -0.510998
