19
Iteration:   749
 C        -0.102016        -0.749615         0.171463
 C         1.361917        -0.230272         0.097264
 C         2.394008        -0.891741        -0.850314
 C         3.428101         0.136217        -0.388164
 C         3.590244        -0.223352         1.123475
 C         2.222381         0.441442         1.251042
 O         1.922384         1.203860         2.342703
 C         2.109443         1.051593        -0.042883
 O         1.954698         2.334373        -0.184335
 H        -0.737143        -0.030354         0.756101
 H        -0.591735        -0.679150        -0.836084
 H        -0.211534        -1.784828         0.653957
 H         2.433039        -2.011334        -0.574558
 H         2.110084        -0.649374        -1.852220
 H         4.253533         0.376753        -1.134576
 H         3.598507        -1.239884         1.548199
 H         4.510019         0.315029         1.538390
 H         2.400794         0.817385         3.062161
 H         2.348470         2.851117         0.523363
