19
Iteration:  1038
 C        -0.069602        -0.515226         0.248290
 C         1.404083        -0.080879         0.137382
 C         2.366908        -0.844349        -0.812957
 C         3.419264         0.129579        -0.361012
 C         3.640737        -0.241048         1.053514
 C         2.318286         0.431617         1.341963
 O         1.798376         0.681262         2.636949
 C         2.208221         1.196947         0.059947
 O         1.980097         2.442999        -0.590299
 H        -0.634450         0.162931         0.929599
 H        -0.602949        -0.733301        -0.722918
 H        -0.064064        -1.490009         0.804536
 H         2.522977        -1.848594        -0.558005
 H         1.991321        -0.781379        -1.838005
 H         4.184816         0.379173        -0.988166
 H         3.471680        -1.347988         1.387585
 H         4.477627         0.184272         1.587455
 H         1.321845         1.542887         2.631657
 H         1.628450         2.005591        -1.412986
