19
Iteration:  2679charge 0 multiplicity 1
 C         0.026529        -0.390068         0.509234
 C         1.405424        -0.174184        -0.000404
 C         2.262479        -0.917169        -0.988246
 C         3.367863         0.169527        -0.502319
 C         3.731807        -0.084633         1.060168
 C         2.297051         0.412842         1.328140
 O         1.821428         0.548466         2.602778
 C         2.190544         1.122438         0.014869
 O         1.885775         2.425317        -0.394973
 H        -0.782511        -0.319954        -0.255261
 H         0.068770        -1.408397         0.853895
 H        -0.067849         0.334589         1.254564
 H         2.515282        -1.930016        -0.713769
 H         1.859222        -0.801663        -2.008533
 H         4.201847         0.480145        -1.162199
 H         4.034451        -1.109206         1.182510
 H         4.607229         0.645245         1.402274
 H         1.840593         1.510363         2.750378
 H         1.225402         2.320918        -1.113575
