19
Iteration:   155charge 0 multiplicity 1
 C        -0.068879         0.021187         0.123229
 C         1.411725        -0.188275         0.095361
 C         2.410434        -1.053062        -0.710664
 C         3.442991         0.087280        -0.414243
 C         3.716634        -0.058696         1.119923
 C         2.263802         0.378140         1.405185
 O         1.939987         0.617570         2.704085
 C         2.196601         1.079512        -0.043658
 O         1.691709         2.243212        -0.672827
 H        -0.248500         0.610020         1.012170
 H        -0.419058         0.602107        -0.704046
 H        -0.730486        -0.791242         0.151330
 H         2.471413        -2.148819        -0.477001
 H         2.215494        -1.009333        -1.808948
 H         4.104848         0.485433        -1.171139
 H         3.954645        -1.032340         1.423206
 H         4.442945         0.539106         1.633976
 H         1.788426        -0.248979         3.211582
 H         2.029638         2.992475        -0.109826
