19
Iteration:   234charge 0 multiplicity 1
 C        -0.109668        -0.287712         0.412001
 C         1.359786        -0.211183         0.030714
 C         2.353479        -1.020301        -0.823121
 C         3.478147         0.149256        -0.412357
 C         3.691133        -0.182247         1.118742
 C         2.238763         0.358275         1.216473
 O         1.885726         0.857325         2.462612
 C         2.216948         1.030061        -0.132273
 O         1.915534         2.392690        -0.275280
 H        -0.485286         0.386817         1.171143
 H        -0.730339        -0.184046        -0.449021
 H        -0.284877        -1.281570         0.833675
 H         2.540302        -2.094246        -0.585217
 H         2.172772        -0.673058        -1.929390
 H         4.389104         0.165534        -1.130691
 H         3.656482        -1.198795         1.278791
 H         4.318380         0.395915         1.836003
 H         0.949743         0.602004         2.724782
 H         2.116021         2.824591        -1.100600
