19
Iteration:  4013
 C         0.029293        -0.272733         0.445963
 C         1.432971         0.016552        -0.024743
 C         2.168761        -0.414853        -1.249581
 C         3.310566         0.408464        -0.699302
 C         3.749520        -0.364030         0.677663
 C         2.363524         0.118750         1.171480
 O         1.863958        -0.023647         2.540538
 C         2.216809         1.260265         0.248335
 O         1.841520         2.572836         0.285694
 H        -0.776048         0.107203        -0.249098
 H        -0.197161        -1.367001         0.577719
 H        -0.129360         0.275297         1.354736
 H         2.202336        -1.552334        -1.186186
 H         1.662921        -0.149433        -2.208106
 H         4.051884         0.978323        -1.199035
 H         3.832521        -1.438352         0.558401
 H         4.716159         0.042102         1.242720
 H         1.936553        -0.971155         2.809194
 H         2.352199         3.224670         0.821508
