19
Iteration:  2183
 C        -0.137396        -0.352106         0.468939
 C         1.364364        -0.210528         0.208668
 C         2.333641        -1.037067        -0.628507
 C         3.315828         0.186699        -0.541821
 C         3.726905         0.107140         0.993219
 C         2.308694         0.361204         1.247362
 O         1.954937         0.587243         2.706456
 C         2.091729         1.130854        -0.073236
 O         1.942134         2.362243        -0.724185
 H        -0.543800         0.638127         0.741416
 H        -0.538374        -0.733791        -0.487055
 H        -0.259238        -1.127003         1.267305
 H         2.620472        -1.922782        -0.035906
 H         1.941763        -1.296616        -1.652890
 H         4.079245         0.546210        -1.206056
 H         4.124556        -0.819566         1.513149
 H         4.557819         0.766170         1.234640
 H         2.523151         1.386953         2.769340
 H         1.294865         2.104684        -1.390620
