19
Iteration:   705
 C        -0.057712        -0.551938         0.280168
 C         1.360569        -0.201338         0.135658
 C         2.292138        -0.967493        -0.683192
 C         3.389559         0.020093        -0.522409
 C         3.779413         0.006612         0.984674
 C         2.328251         0.366630         1.276416
 O         1.673128         0.958289         2.391725
 C         2.226425         1.034052        -0.095834
 O         2.078912         2.413082        -0.231463
 H        -0.506125        -0.254087         1.249492
 H        -0.720213        -0.047834        -0.460241
 H        -0.178862        -1.655019         0.087289
 H         2.586754        -1.962393        -0.197364
 H         1.838338        -1.062143        -1.642031
 H         4.237132         0.142823        -1.191377
 H         4.310256        -0.856664         1.366074
 H         4.369033         0.923016         1.245849
 H         0.800919         0.561443         2.498346
 H         1.613264         2.771203         0.536613
