19
Iteration:  3878charge 0 multiplicity 1
 C        -0.113240        -0.197545         0.360646
 C         1.340928        -0.129126         0.014016
 C         2.135803        -0.497775        -1.297167
 C         3.330604         0.341174        -0.627721
 C         3.822211        -0.280407         0.701993
 C         2.441744         0.171743         1.246659
 O         2.009707         0.243250         2.502851
 C         2.244336         1.162480         0.187347
 O         1.803449         2.411571         0.336520
 H        -0.288024        -1.282228         0.615721
 H        -0.596654         0.533164         1.038035
 H        -0.731735        -0.086485        -0.592858
 H         2.350224        -1.597652        -1.499160
 H         1.839185         0.047643        -2.246691
 H         4.099633         0.861414        -1.289495
 H         3.903350        -1.439402         0.769824
 H         4.675636         0.284802         1.206445
 H         1.427730        -0.420073         2.889532
 H         2.086362         2.738598         1.231761
