19
Iteration:  3510
 C        -0.074550        -0.210897         0.190906
 C         1.419594        -0.121384         0.088023
 C         2.136978        -0.692062        -1.026824
 C         3.310178         0.269586        -0.603654
 C         3.742481        -0.190815         0.809012
 C         2.404947         0.200834         1.329335
 O         2.064762         0.420321         2.608860
 C         2.178981         1.122257         0.141974
 O         1.751233         2.415888         0.037456
 H        -0.257839        -0.194757         1.303991
 H        -0.755933         0.401873        -0.471035
 H        -0.345244        -1.214712        -0.059921
 H         2.384170        -1.789796        -1.070065
 H         1.860514        -0.317190        -2.036290
 H         4.207840         0.639799        -1.152579
 H         4.000061        -1.244772         0.923501
 H         4.576417         0.399736         1.335098
 H         2.689243        -0.086793         3.170216
 H         1.359681         2.467264        -0.842573
