19
Iteration:  3129
 C        -0.138733        -0.429432         0.342038
 C         1.308100        -0.143681         0.150115
 C         2.210141        -0.839498        -0.935869
 C         3.312133         0.192101        -0.584921
 C         3.781619        -0.120175         0.893530
 C         2.367895         0.244990         1.277092
 O         2.050236         0.483036         2.617611
 C         2.227806         1.196946        -0.011336
 O         1.772599         2.507611        -0.229979
 H        -0.820555         0.487101         0.515545
 H        -0.548896        -0.698403        -0.627146
 H        -0.568913        -1.134266         1.045163
 H         2.653964        -1.868327        -0.846264
 H         1.774685        -0.610213        -1.923541
 H         3.952075         0.762035        -1.240851
 H         4.253851        -1.135650         0.970150
 H         4.526791         0.474190         1.350820
 H         2.943583         0.620078         2.983848
 H         2.035387         3.004670         0.573231
