19
Iteration:  2561
 C        -0.074708        -0.571494         0.382348
 C         1.359562        -0.162162         0.160066
 C         2.304145        -0.934949        -0.799484
 C         3.396050         0.152627        -0.571644
 C         3.722575        -0.106816         0.908393
 C         2.303609         0.416855         1.290646
 O         1.825420         0.713382         2.631964
 C         2.264506         1.126545        -0.015412
 O         1.940438         2.466439        -0.342629
 H        -0.329799        -1.062838         1.385996
 H        -0.764396         0.256507         0.218639
 H        -0.348577        -1.405887        -0.284547
 H         2.469067        -2.001055        -0.557088
 H         1.536635        -0.852983        -1.601728
 H         4.024857         0.680588        -1.346620
 H         3.992188        -1.190604         1.141595
 H         4.533696         0.413968         1.236824
 H         1.866459         1.691999         2.782048
 H         1.662258         2.521276        -1.286210
