19
Iteration:  4153charge 0 multiplicity 1
 C        -0.056294        -0.176671         0.400323
 C         1.431609        -0.044416         0.060352
 C         2.160980        -0.318716        -1.214443
 C         3.313052         0.447290        -0.687760
 C         3.822491        -0.398086         0.590775
 C         2.446919        -0.022247         1.147938
 O         1.895677        -0.023952         2.470367
 C         2.212488         1.220536         0.340278
 O         1.765010         2.544446         0.347813
 H        -0.381025         0.115554         1.432990
 H        -0.640151         0.455353        -0.313783
 H        -0.285147        -1.218198         0.189600
 H         2.293075        -1.317631        -1.613850
 H         1.766803         0.322709        -1.999106
 H         4.035596         0.951525        -1.267269
 H         3.987390        -1.521535         0.649751
 H         4.540420         0.180991         1.183502
 H         1.904062        -0.942036         2.778132
 H         2.429380         3.111046         0.803575
