19
Iteration:  3406
 C        -0.131276        -0.505376         0.224397
 C         1.353408        -0.102646         0.209803
 C         2.186780        -0.803953        -1.024965
 C         3.208149         0.317795        -0.666483
 C         3.744176        -0.115652         0.863962
 C         2.373476         0.286365         1.289705
 O         2.133931         0.445367         2.655578
 C         2.121766         1.150069         0.120833
 O         1.992598         2.542259        -0.059011
 H        -0.277760        -1.480170        -0.262846
 H        -0.553077        -0.802741         1.225718
 H        -0.671055         0.328840        -0.368742
 H         2.643788        -1.805430        -0.855843
 H         1.586869        -0.673426        -1.928447
 H         3.963196         0.744002        -1.371971
 H         3.928680        -1.215291         1.126961
 H         4.526683         0.593684         1.144258
 H         1.313346         0.093886         2.995294
 H         1.452599         2.672110        -0.868667
