19
Iteration:   371
 C        -0.001734        -0.048287         0.198320
 C         1.433838        -0.173877         0.227719
 C         2.415698        -0.883227        -0.698908
 C         3.474659         0.028459        -0.461756
 C         3.784237        -0.135944         1.056307
 C         2.330121         0.298703         1.401554
 O         1.691604         0.706206         2.539610
 C         2.330440         1.121708         0.027913
 O         1.672535         2.220985        -0.619739
 H        -0.354226         1.017986         0.357538
 H        -0.365767        -0.347131        -0.841090
 H        -0.494331        -0.602884         1.054262
 H         2.614427        -2.007998        -0.488089
 H         1.948239        -0.734350        -1.693787
 H         4.338922         0.051983        -1.107419
 H         3.853035        -1.237516         1.248188
 H         4.559415         0.429736         1.530457
 H         1.054632         0.029896         2.913372
 H         2.007691         3.042276        -0.141474
