19
Iteration:  1322
 C        -0.064114        -0.470141         0.118906
 C         1.407415        -0.260214         0.164530
 C         2.380845        -0.912670        -0.858765
 C         3.380316         0.113700        -0.369513
 C         3.748380        -0.133992         1.087229
 C         2.417801         0.526184         1.390791
 O         1.891107         0.920728         2.638387
 C         2.177193         1.079029        -0.016673
 O         1.718090         2.251807        -0.512906
 H        -0.683231         0.392181         0.332802
 H        -0.122265        -0.741831        -0.949391
 H        -0.353056        -1.243385         0.835614
 H         2.759741        -2.011772        -0.728281
 H         1.836117        -0.498270        -1.720723
 H         4.292267         0.353216        -1.051342
 H         3.656480        -1.174519         1.408909
 H         4.600296         0.430988         1.398850
 H         1.021499         0.484972         2.718540
 H         2.070551         2.921343         0.119284
