19
Iteration:  3902charge 0 multiplicity 1
 C        -0.040406        -0.158850         0.247408
 C         1.378717        -0.103826        -0.013401
 C         2.211162        -0.529723        -1.136088
 C         3.410353         0.312694        -0.717775
 C         3.764614        -0.343263         0.624647
 C         2.354752         0.021917         1.191043
 O         2.065041         0.253954         2.547506
 C         2.214256         1.219601         0.159093
 O         1.663381         2.485922         0.490217
 H        -0.273067        -0.675714         1.230413
 H        -0.459470         0.894498         0.196480
 H        -0.628216        -0.664796        -0.517250
 H         2.325627        -1.663594        -1.172467
 H         1.616112        -0.161432        -2.030098
 H         4.171106         0.528426        -1.460893
 H         4.118431        -1.380438         0.402576
 H         4.538232         0.338658         1.258603
 H         1.246484        -0.109584         2.910543
 H         2.370372         2.994830         0.907480
