19
Iteration:  4534charge 0 multiplicity 1
 C        -0.097011        -0.335928         0.223079
 C         1.260766         0.169468        -0.025018
 C         2.050742        -0.158988        -1.393071
 C         3.246373         0.559508        -0.615992
 C         3.744815        -0.309251         0.454056
 C         2.344455        -0.043862         1.112023
 O         1.945010        -0.165501         2.441125
 C         2.211378         1.196431         0.375526
 O         2.178935         2.475404         0.804740
 H        -0.203790        -1.382009        -0.095134
 H        -0.491775        -0.336733         1.226505
 H        -0.756828         0.169368        -0.487169
 H         2.375242        -1.141041        -1.644590
 H         1.771185         0.363088        -2.321478
 H         4.068411         0.974040        -1.310085
 H         4.149317        -1.340154         0.243621
 H         4.451456         0.311174         0.945365
 H         1.575025        -0.962397         2.782229
 H         2.147599         2.419973         1.755254
