19
Iteration:  1119
 C         0.057505        -0.169355         0.259504
 C         1.478826        -0.311255         0.128620
 C         2.468350        -1.117834        -0.649744
 C         3.455259         0.108772        -0.444492
 C         3.685843         0.042568         0.994085
 C         2.245300         0.382897         1.253339
 O         1.560421         0.668323         2.457050
 C         2.189155         1.071994        -0.134620
 O         1.809777         2.397744        -0.344912
 H        -0.119297         0.884167         0.443400
 H        -0.368369        -0.284877        -0.732168
 H        -0.466442        -0.737269         1.057995
 H         3.004252        -1.931142        -0.096103
 H         2.074260        -1.440941        -1.671937
 H         4.206207         0.210516        -1.362360
 H         4.240091        -0.861783         1.315580
 H         4.278607         0.937571         1.392153
 H         2.061680         0.268252         3.154653
 H         2.383398         2.773263         0.383401
