19
Iteration:  1346
 C        -0.089812        -0.496774         0.163452
 C         1.397928        -0.258317         0.213740
 C         2.368603        -0.938758        -0.823504
 C         3.412996         0.230135        -0.482807
 C         3.769643        -0.073969         1.037048
 C         2.279956         0.279458         1.385504
 O         1.855760         0.926939         2.571981
 C         2.262664         1.090920         0.052007
 O         1.892353         2.304896        -0.447109
 H        -0.689121         0.400680         0.265145
 H        -0.266476        -0.965509        -0.795951
 H        -0.356427        -1.084034         1.062160
 H         2.472820        -2.013595        -0.386522
 H         1.833508        -0.742828        -1.762712
 H         4.134348         0.388305        -1.308087
 H         4.059350        -1.095348         1.281107
 H         4.362488         0.704729         1.416694
 H         0.889899         1.163251         2.440602
 H         0.979395         2.517238        -0.183293
