19
Iteration:  4120
 C        -0.168241        -0.162497         0.216936
 C         1.272622        -0.025290        -0.068406
 C         2.197573        -0.481126        -1.242777
 C         3.284906         0.414043        -0.721692
 C         3.804272        -0.282172         0.604476
 C         2.479727         0.086710         1.187932
 O         2.102183         0.001861         2.607757
 C         2.167782         1.185656         0.276635
 O         1.828829         2.517652         0.493977
 H        -0.382114        -0.837643         1.085989
 H        -0.698624         0.816042         0.222924
 H        -0.580455        -0.662738        -0.658667
 H         2.477238        -1.533305        -1.346401
 H         1.870242        -0.163069        -2.228525
 H         3.900741         0.981076        -1.333984
 H         4.078803        -1.355820         0.751254
 H         4.553283         0.258402         1.176793
 H         1.295477        -0.478487         2.942000
 H         2.331531         2.799572         1.311274
