19
Iteration:  3711
 C        -0.139894        -0.171575         0.205793
 C         1.392561        -0.136126         0.102682
 C         2.198569        -0.708148        -1.117579
 C         3.232634         0.355714        -0.644013
 C         3.809980        -0.218388         0.810242
 C         2.474020         0.213649         1.214280
 O         2.055490         0.340147         2.460167
 C         2.172907         1.130747         0.121261
 O         1.818624         2.411766         0.364912
 H        -0.399598        -0.166590         1.270255
 H        -0.563786         0.698132        -0.195089
 H        -0.603697        -0.963747        -0.434772
 H         2.524422        -1.786954        -1.032447
 H         1.796864        -0.484474        -2.136381
 H         3.970637         0.776747        -1.284291
 H         4.146158        -1.279579         1.030898
 H         4.495501         0.425776         1.210059
 H         2.082909        -0.549082         2.885797
 H         1.082830         2.675637        -0.237782
