19
Iteration:   864
 C        -0.089708        -0.146508         0.371681
 C         1.419689        -0.139470         0.237771
 C         2.383398        -0.893509        -0.783485
 C         3.450322         0.192249        -0.374425
 C         3.709027         0.042068         1.104308
 C         2.336039         0.530185         1.385665
 O         1.738003         0.265391         2.615751
 C         2.179793         1.159884        -0.033014
 O         1.866683         2.195203        -0.790671
 H        -0.412880         0.866692         0.656606
 H        -0.562768        -0.287651        -0.601469
 H        -0.445963        -0.832315         1.129838
 H         2.632438        -2.006162        -0.762257
 H         1.950698        -0.576943        -1.840697
 H         4.230987         0.225201        -1.053844
 H         3.792004        -0.921220         1.582908
 H         4.459154         0.695495         1.438722
 H         1.533926         1.033944         3.143826
 H         2.678739         2.448151        -1.232046
