19
Iteration:  1802charge 0 multiplicity 1
 C        -0.002195        -0.423507         0.633385
 C         1.405329        -0.208465         0.167466
 C         2.359637        -1.067952        -0.732262
 C         3.358660         0.121423        -0.544410
 C         3.757956         0.001254         0.910190
 C         2.324886         0.441048         1.267891
 O         1.746730         0.759794         2.532371
 C         2.146782         1.105944        -0.104986
 O         1.929269         2.385449        -0.491845
 H        -0.145872         0.081152         1.541251
 H        -0.803175        -0.235714        -0.090835
 H        -0.151202        -1.421838         0.934738
 H         2.530292        -2.116851        -0.490818
 H         1.943675        -1.060482        -1.739938
 H         4.094826         0.147618        -1.284169
 H         3.909812        -1.101756         1.017331
 H         4.540409         0.600481         1.439008
 H         1.880669         1.700646         2.708006
 H         1.371841         2.421056        -1.284217
