19
Iteration:   301
 C        -0.117661        -0.625642         0.343976
 C         1.343642        -0.197785         0.187695
 C         2.176879        -0.944405        -0.786614
 C         3.342861         0.108119        -0.528326
 C         3.686972        -0.052337         1.058986
 C         2.250108         0.311719         1.286710
 O         1.641558         0.901425         2.346564
 C         2.256432         1.134605         0.002915
 O         2.391417         2.483295        -0.288032
 H        -0.889443         0.124257         0.396611
 H        -0.367588        -1.297292        -0.455251
 H        -0.210951        -1.123462         1.311023
 H         2.513471        -1.968147        -0.465945
 H         1.844476        -0.868510        -1.922948
 H         4.006032         0.185940        -1.424280
 H         4.049920        -1.030767         1.309669
 H         4.317004         0.767165         1.448804
 H         1.668025         0.433931         3.174018
 H         1.481241         2.795787        -0.526667
