19
Iteration:  4896
 C        -0.149215         0.045809         0.165490
 C         1.297151         0.130246        -0.083789
 C         2.083804        -0.036367        -1.356244
 C         3.194004         0.690431        -0.629311
 C         3.739045        -0.339992         0.362904
 C         2.384095        -0.143931         1.133284
 O         2.141833        -0.657286         2.466034
 C         2.283386         1.163904         0.496761
 O         1.959384         2.521595         0.941713
 H        -0.584105         1.025994         0.501101
 H        -0.660052        -0.264454        -0.768566
 H        -0.429031        -0.672636         0.950489
 H         2.185216        -1.111951        -1.623189
 H         1.756600         0.652734        -2.067009
 H         3.997446         1.284107        -1.078578
 H         4.023109        -1.337012        -0.120491
 H         4.610272         0.090208         0.850804
 H         1.599537        -1.497783         2.353906
 H         2.104551         2.822842         0.021068
