19
Iteration:   598
 C        -0.078123        -0.237555         0.014470
 C         1.400256        -0.207635         0.149163
 C         2.336099        -0.916391        -0.850332
 C         3.390022         0.191078        -0.464951
 C         3.707537        -0.115345         1.106554
 C         2.262342         0.323757         1.444010
 O         1.873908         0.687454         2.759706
 C         2.273878         1.108834         0.067301
 O         1.762376         2.195464        -0.527788
 H        -0.342433         0.788326         0.269970
 H        -0.336217        -0.445513        -1.027125
 H        -0.670970        -0.922999         0.641240
 H         2.628365        -1.950038        -0.641059
 H         2.100767        -0.862680        -1.971652
 H         4.315792         0.476109        -1.030857
 H         3.910087        -1.132134         1.537665
 H         4.416799         0.613234         1.512718
 H         2.083505         1.634169         2.762487
 H         2.399579         2.870679        -0.779369
