19
Iteration:  2022
 C        -0.129860        -0.533551         0.281242
 C         1.383134        -0.275250         0.287157
 C         2.314851        -1.061623        -0.620163
 C         3.297290         0.138382        -0.485737
 C         3.773716         0.029226         0.912329
 C         2.301800         0.383792         1.308634
 O         1.998223         0.936988         2.560021
 C         2.153301         1.029528        -0.089059
 O         1.842170         2.364445        -0.459442
 H        -0.392019        -0.151752         1.310324
 H        -0.814457         0.039719        -0.427049
 H        -0.431235        -1.568596         0.307975
 H         2.726948        -1.994422        -0.163209
 H         1.744725        -1.143281        -1.557381
 H         3.934737         0.456864        -1.397855
 H         4.306176        -0.846614         1.274632
 H         4.424132         0.862380         1.114518
 H         2.733865         1.585111         2.687904
 H         1.389248         2.384778        -1.318553
