19
Iteration:   201
 C        -0.021318        -0.110080         0.126820
 C         1.429600        -0.157982         0.236941
 C         2.238714        -1.000679        -0.711995
 C         3.349980         0.104423        -0.431272
 C         3.812505        -0.081282         0.990273
 C         2.372612         0.357261         1.387304
 O         1.849139         0.700860         2.667617
 C         2.206633         1.090998         0.012940
 O         1.867993         2.298908        -0.496574
 H        -0.677484         0.432479         0.796678
 H        -0.242032         0.213235        -0.885528
 H        -0.345011        -1.147960         0.057635
 H         2.373711        -2.096574        -0.649008
 H         1.892009        -0.880568        -1.830852
 H         4.191923         0.148492        -1.212633
 H         4.166661        -1.031082         1.264758
 H         4.582270         0.629509         1.360272
 H         0.995225         0.176894         2.748519
 H         1.132192         2.103626        -1.134912
