19
Iteration:  2743charge 0 multiplicity 1
 C         0.009987        -0.615447         0.473455
 C         1.344102        -0.160754         0.101429
 C         2.230062        -0.946347        -0.903103
 C         3.268663         0.157935        -0.542333
 C         3.748364        -0.050651         0.917718
 C         2.352298         0.424540         1.257024
 O         1.726541         0.728550         2.450696
 C         2.135467         1.115162         0.003886
 O         2.096021         2.465085        -0.256521
 H         0.002168        -1.754115         0.313426
 H        -0.252144        -0.437598         1.619092
 H        -0.828121        -0.249836        -0.185096
 H         2.488637        -2.002183        -0.604600
 H         1.837343        -0.941967        -1.944776
 H         4.001102         0.530092        -1.279404
 H         4.184163        -0.996734         1.101514
 H         4.560639         0.707192         1.102315
 H         2.304977         0.985638         3.168463
 H         1.669422         2.945551         0.466607
