19
Iteration:  1224
 C        -0.086096        -0.505322         0.318663
 C         1.394098        -0.138433         0.041335
 C         2.326857        -0.953919        -0.762674
 C         3.421511         0.200270        -0.414081
 C         3.766024        -0.013074         1.173218
 C         2.271895         0.338358         1.296803
 O         1.692507         0.695818         2.525458
 C         2.229721         1.100191         0.007953
 O         2.006482         2.383377        -0.561026
 H        -0.270921        -0.363829         1.385603
 H        -0.854810        -0.085257        -0.366181
 H        -0.178496        -1.606650         0.195454
 H         2.456535        -2.057383        -0.282115
 H         2.308641        -1.208984        -1.852760
 H         4.238050         0.476089        -1.115230
 H         4.180989        -1.020427         1.430838
 H         4.475766         0.769773         1.359998
 H         1.557544         1.669485         2.572716
 H         1.215316         2.794868        -0.132053
