19
Iteration:  3048
 C        -0.010027        -0.253965         0.575942
 C         1.372909        -0.161703         0.050454
 C         2.275856        -0.831996        -0.981118
 C         3.340450         0.239759        -0.573261
 C         3.789600        -0.090361         0.924977
 C         2.422122         0.315175         1.247876
 O         1.888649         0.361150         2.568651
 C         2.180857         1.106690        -0.032926
 O         1.731517         2.402158        -0.190159
 H         0.149468        -0.632224         1.621190
 H        -0.631789         0.766878         0.521321
 H        -0.621861        -1.013085         0.017572
 H         2.550556        -1.944137        -0.963257
 H         1.895135        -0.706534        -2.044032
 H         4.137763         0.736827        -1.160568
 H         4.108025        -1.131736         0.994593
 H         4.386729         0.647207         1.292642
 H         1.675438         1.324539         2.644558
 H         2.161268         2.812609        -0.946714
