19
Iteration:  3191
 C        -0.078561        -0.324762         0.539039
 C         1.380851        -0.205474         0.080158
 C         2.238176        -0.785005        -0.975008
 C         3.344443         0.204289        -0.602531
 C         3.820739        -0.163698         0.773425
 C         2.402892         0.208735         1.180282
 O         1.894895         0.575067         2.428043
 C         2.193449         1.105627        -0.004296
 O         1.839355         2.398427         0.149177
 H        -0.565059         0.585599         0.089625
 H        -0.537874        -1.306978         0.119689
 H        -0.048821        -0.051710         1.581652
 H         2.535684        -1.854838        -0.741064
 H         1.804979        -0.557866        -1.971722
 H         4.072286         0.577259        -1.313309
 H         4.129741        -1.232600         0.836765
 H         4.463063         0.706362         1.161634
 H         1.747982         1.541399         2.299151
 H         1.229342         2.500186        -0.607626
