19
Iteration:  1991charge 0 multiplicity 1
 C        -0.049503        -0.422484         0.544719
 C         1.457173        -0.170377         0.201542
 C         2.272920        -1.011932        -0.739031
 C         3.376725         0.044176        -0.459235
 C         3.815278        -0.009959         1.015579
 C         2.425168         0.594820         1.315114
 O         1.807886         0.683773         2.523755
 C         2.194337         1.112256        -0.131087
 O         1.721886         2.324763        -0.617643
 H         0.053710         0.053531         1.565035
 H        -0.910196         0.068925         0.018802
 H        -0.235515        -1.489099         0.720209
 H         2.523559        -2.066703        -0.468066
 H         1.787944        -0.939151        -1.722514
 H         4.168923         0.308207        -1.280478
 H         4.022041        -0.884484         1.533308
 H         4.728238         0.701490         1.185765
 H         2.329831         1.310395         3.044619
 H         1.343182         2.134102        -1.504039
