19
Iteration:  4902
 C        -0.165568        -0.000319         0.163735
 C         1.273424         0.181613        -0.066764
 C         2.074230        -0.025015        -1.346807
 C         3.218628         0.650003        -0.673250
 C         3.748143        -0.362657         0.368238
 C         2.370021        -0.193824         1.153747
 O         2.132541        -0.659611         2.481758
 C         2.245435         1.182489         0.495878
 O         2.016813         2.568978         0.943570
 H        -0.708829         0.923741         0.322353
 H        -0.479438        -0.547327        -0.748032
 H        -0.404284        -0.683617         0.995603
 H         2.288683        -0.990259        -1.863420
 H         1.705822         0.712026        -2.175734
 H         3.877065         1.356713        -1.185587
 H         4.214053        -1.204918        -0.127942
 H         4.613853        -0.014949         0.995130
 H         1.614472        -1.476389         2.351083
 H         1.927808         3.128987         0.109287
