19
Iteration:   357
 C        -0.056437        -0.161935         0.229344
 C         1.492793        -0.115568         0.184617
 C         2.294089        -0.984820        -0.757233
 C         3.511282         0.138590        -0.388377
 C         3.736650        -0.251872         1.134009
 C         2.326094         0.392430         1.332983
 O         1.721098         0.726986         2.605246
 C         2.276487         1.113656        -0.063825
 O         1.794786         2.302696        -0.635037
 H        -0.489862         0.825126         0.201660
 H        -0.412080        -0.669399        -0.674695
 H        -0.524435        -0.733362         1.040883
 H         2.549513        -2.070318        -0.532845
 H         2.012187        -0.851121        -1.902109
 H         4.270453         0.406361        -1.086389
 H         4.032669        -1.263538         1.379190
 H         4.439278         0.483305         1.496450
 H         1.488979        -0.114179         2.990509
 H         1.606626         2.920405         0.069160
