19
Iteration:  1493charge 0 multiplicity 1
 C        -0.055694        -0.449842         0.188510
 C         1.409491        -0.231112         0.240416
 C         2.393892        -1.040840        -0.625569
 C         3.396644         0.124300        -0.501645
 C         3.772263        -0.039992         1.015333
 C         2.393036         0.467677         1.316854
 O         1.902459         0.899431         2.594897
 C         2.107720         1.074691        -0.053839
 O         1.692534         2.331807        -0.551672
 H        -0.655212        -0.051361         1.055469
 H        -0.473292         0.071073        -0.679674
 H        -0.199012        -1.508700        -0.000419
 H         2.634085        -2.071695        -0.342104
 H         1.993108        -1.139313        -1.668772
 H         4.184841         0.428582        -1.308066
 H         3.956341        -1.011624         1.396398
 H         4.504650         0.615456         1.474328
 H         1.543773         0.097960         2.985929
 H         2.177858         2.991808        -0.000473
