19
Iteration:  1124
 C         0.036675        -0.218050         0.234456
 C         1.492876        -0.286288         0.168232
 C         2.489695        -1.119767        -0.688682
 C         3.403406         0.066267        -0.476470
 C         3.709065         0.054479         0.994267
 C         2.262514         0.368168         1.225163
 O         1.569587         0.712214         2.434110
 C         2.203284         1.080494        -0.068402
 O         1.806147         2.424277        -0.318300
 H        -0.161558         0.856359         0.455517
 H        -0.485482        -0.322419        -0.740187
 H        -0.431627        -0.865945         0.965436
 H         2.922891        -1.974509        -0.025504
 H         2.179708        -1.501442        -1.625250
 H         4.179506         0.243428        -1.123885
 H         4.037225        -0.925491         1.387413
 H         4.287726         0.880534         1.308256
 H         1.980257         0.217403         3.215400
 H         2.492012         2.836565         0.225175
