19
Iteration:  4734charge 0 multiplicity 1
 C        -0.102094        -0.344197         0.234862
 C         1.288645         0.104233        -0.035202
 C         2.070911        -0.026950        -1.276071
 C         3.303555         0.665152        -0.650135
 C         3.689378        -0.438947         0.414313
 C         2.358768        -0.079560         1.049599
 O         1.893955        -0.300869         2.356194
 C         2.258398         1.273831         0.369399
 O         2.123509         2.522688         0.930447
 H        -0.565023        -0.758958        -0.689625
 H        -0.154170        -1.008642         1.090857
 H        -0.780308         0.485250         0.533033
 H         2.435108        -1.028252        -1.614748
 H         1.859958         0.648948        -2.183186
 H         3.999267         1.224535        -1.234536
 H         3.851933        -1.432805        -0.030186
 H         4.537937        -0.180373         1.102020
 H         1.300871        -1.098603         2.432007
 H         3.026875         2.714573         1.325690
