19
Iteration:  3302charge 0 multiplicity 1
 C        -0.048520        -0.228934         0.497903
 C         1.325598        -0.176873         0.075897
 C         2.246388        -0.729926        -0.935377
 C         3.366678         0.265590        -0.622523
 C         3.806496        -0.098094         0.861176
 C         2.434756         0.237636         1.243582
 O         1.916579         0.380399         2.540067
 C         2.169921         1.105762         0.072995
 O         1.821817         2.435914        -0.225930
 H        -0.716060        -0.756414        -0.209215
 H        -0.209090        -0.400453         1.586248
 H        -0.494358         0.738772         0.467523
 H         2.438344        -1.789316        -0.924243
 H         1.773985        -0.729526        -1.922952
 H         3.931127         0.684672        -1.430362
 H         4.130667        -1.220552         0.773414
 H         4.580515         0.641676         1.241101
 H         1.844605        -0.500897         2.965792
 H         1.493801         2.736602         0.669507
