19
Iteration:   945
 C        -0.082495        -0.432726         0.224733
 C         1.390220        -0.215872         0.112437
 C         2.336707        -1.055093        -0.730732
 C         3.477911         0.003398        -0.474121
 C         3.772442        -0.082417         1.010353
 C         2.245910         0.303811         1.255812
 O         1.649953         0.989807         2.351095
 C         2.279313         1.042203        -0.123042
 O         1.943084         2.434383        -0.111908
 H        -0.335836        -0.243448         1.261805
 H        -0.681145         0.164230        -0.448810
 H        -0.347405        -1.484822         0.037881
 H         2.649321        -2.050151        -0.338747
 H         2.052319        -1.146220        -1.757555
 H         4.201538         0.241938        -1.369245
 H         4.265076        -0.926749         1.504294
 H         4.298838         0.892823         1.277883
 H         2.391117         1.476805         2.800108
 H         1.172693         2.505242         0.464315
