19
Iteration:  4373charge 0 multiplicity 1
 C        -0.101457        -0.160267         0.309708
 C         1.346752         0.048896        -0.007230
 C         2.117559        -0.274703        -1.270202
 C         3.183635         0.586264        -0.631977
 C         3.697647        -0.308843         0.678626
 C         2.398404        -0.008843         1.207041
 O         2.140190        -0.505081         2.495835
 C         2.183153         1.232853         0.339550
 O         1.950378         2.681060         0.361003
 H        -0.409235        -0.003986         1.390966
 H        -0.598659         0.602796        -0.312911
 H        -0.383127        -1.173204         0.078715
 H         2.312412        -1.360958        -1.498982
 H         1.618786         0.339477        -2.071390
 H         3.987865         1.128410        -1.235223
 H         3.921981        -1.357934         0.405130
 H         4.618414         0.064694         1.223080
 H         1.184090        -0.659603         2.534302
 H         2.598418         3.168880         0.858594
