19
Iteration:  2467
 C        -0.112945        -0.446799         0.269182
 C         1.378831        -0.189253         0.213928
 C         2.327779        -1.019488        -0.704805
 C         3.391025         0.095335        -0.585834
 C         3.774695        -0.002349         0.947142
 C         2.352618         0.345931         1.271464
 O         1.878723         0.830087         2.527641
 C         2.161657         1.045339        -0.079406
 O         1.818683         2.367325        -0.214054
 H        -0.361546        -0.829808        -0.671431
 H        -0.577838        -1.091986         0.997393
 H        -0.709301         0.463673         0.278589
 H         2.727367        -1.954853        -0.308388
 H         1.792588        -1.120883        -1.635642
 H         4.202222         0.373704        -1.258477
 H         4.237453        -0.906529         1.343283
 H         4.525885         0.844312         1.276434
 H         2.397250         1.640293         2.694967
 H         1.519654         2.448784        -1.135823
