19
Iteration:  1304
 C        -0.083258        -0.417316         0.184588
 C         1.445921        -0.187834         0.113315
 C         2.402844        -0.975520        -0.779328
 C         3.525639         0.079652        -0.448633
 C         3.666261        -0.095829         1.149916
 C         2.280526         0.452361         1.314735
 O         1.895343         0.844425         2.587723
 C         2.224384         1.135394        -0.047779
 O         1.642506         2.306061        -0.460330
 H        -0.566779         0.459792         0.666519
 H        -0.542155        -0.437434        -0.819527
 H        -0.339666        -1.319820         0.807198
 H         2.753666        -2.003879        -0.458970
 H         2.193624        -0.802433        -1.868597
 H         4.352776         0.473104        -1.021369
 H         3.866102        -1.163106         1.429787
 H         4.391411         0.569584         1.694720
 H         1.540975         0.060407         3.068687
 H         2.388441         2.842690        -0.810734
