19
Iteration:   253
 C        -0.020451        -0.485095         0.493271
 C         1.367530        -0.152303         0.015284
 C         2.368466        -0.952631        -0.812536
 C         3.391933         0.032575        -0.496940
 C         3.603794        -0.262977         1.076195
 C         2.240046         0.313813         1.189259
 O         1.763852         0.986984         2.326318
 C         2.255172         1.117098        -0.082976
 O         2.039012         2.470016        -0.129157
 H        -0.373457         0.429160         1.017030
 H        -0.769723        -0.639549        -0.301033
 H        -0.110526        -1.299025         1.198714
 H         2.611079        -1.950471        -0.424270
 H         2.009030        -0.998839        -1.838250
 H         4.296321         0.362145        -1.094170
 H         3.902537        -1.286424         1.491505
 H         4.322192         0.538671         1.402265
 H         0.840262         0.563543         2.464827
 H         2.152438         2.627490        -1.082092
