19
Iteration:  4539
 C        -0.091137        -0.346689         0.259683
 C         1.247240         0.143951        -0.014139
 C         2.087108        -0.136318        -1.420349
 C         3.250422         0.538953        -0.678716
 C         3.737145        -0.323439         0.468639
 C         2.334214        -0.031229         1.108824
 O         1.923765        -0.178690         2.457914
 C         2.273710         1.196001         0.366740
 O         2.164609         2.514811         0.813323
 H        -0.101361        -1.466115         0.121254
 H        -0.564260        -0.222490         1.268322
 H        -0.700125         0.071658        -0.566434
 H         2.158195        -1.263762        -1.693089
 H         1.870567         0.499316        -2.300985
 H         3.949312         1.012121        -1.285756
 H         4.152183        -1.262069         0.162485
 H         4.519538         0.325458         0.994346
 H         1.354140        -0.997828         2.664208
 H         2.092569         2.393602         1.803139
