19
Iteration:  4364
 C        -0.062706        -0.152739         0.259112
 C         1.319113         0.030170        -0.018141
 C         2.101538        -0.257631        -1.239727
 C         3.200655         0.551168        -0.562822
 C         3.736128        -0.332962         0.579016
 C         2.360943        -0.017711         1.217036
 O         2.117566        -0.454897         2.489073
 C         2.167281         1.295319         0.380537
 O         1.953748         2.644920         0.385443
 H        -0.105726        -0.225489         1.367520
 H        -0.794805         0.596415        -0.093311
 H        -0.410400        -1.080567        -0.222329
 H         2.260309        -1.326438        -1.387300
 H         1.934904         0.082636        -2.244282
 H         3.788751         1.102487        -1.331605
 H         3.949678        -1.381040         0.346052
 H         4.525916         0.368710         1.059198
 H         1.308118        -0.647468         2.946550
 H         2.732477         3.033328         0.776344
