19
Iteration:   902charge 0 multiplicity 1
 C        -0.087188        -0.398785         0.229053
 C         1.434368        -0.112636         0.138603
 C         2.385897        -0.866480        -0.775635
 C         3.453210         0.160517        -0.447734
 C         3.687999        -0.211537         1.089451
 C         2.283909         0.328629         1.383437
 O         1.721451         0.788787         2.602102
 C         2.267312         1.128875         0.006680
 O         1.779405         2.307015        -0.552856
 H        -0.614690         0.027529         1.092271
 H        -0.609422        -0.179733        -0.712117
 H        -0.194788        -1.492489         0.411571
 H         2.532470        -1.921028        -0.601887
 H         2.002866        -0.753901        -1.733681
 H         4.460273         0.347931        -1.017333
 H         3.875120        -1.308669         1.125337
 H         4.556991         0.385395         1.557360
 H         2.507810         1.195302         3.078465
 H         2.547590         2.797650        -0.904802
