19
Iteration:  1202
 C        -0.087423        -0.643424         0.248128
 C         1.423818        -0.200852         0.068856
 C         2.439570        -0.901623        -0.757898
 C         3.433754         0.177404        -0.396717
 C         3.605760        -0.203785         1.103058
 C         2.292198         0.566774         1.342499
 O         1.823164         0.843550         2.596880
 C         2.148028         1.086030        -0.019633
 O         1.967497         2.405710        -0.547278
 H        -0.514384        -0.447647         1.243997
 H        -0.686098        -0.214185        -0.589810
 H        -0.212484        -1.735033         0.132866
 H         2.796052        -2.058973        -0.713679
 H         2.080298        -0.844901        -1.824579
 H         4.249058         0.361194        -1.086172
 H         3.483283        -1.301614         1.328560
 H         4.547656         0.189589         1.497877
 H         1.196049         1.584110         2.554640
 H         1.547957         2.893809         0.169604
