19
Iteration:  1818
 C        -0.026842        -0.384541         0.698820
 C         1.362645        -0.239676         0.134300
 C         2.323593        -0.992172        -0.806173
 C         3.386574         0.095075        -0.568219
 C         3.832688        -0.115419         0.951178
 C         2.432912         0.517069         1.267620
 O         1.687313         0.791752         2.456205
 C         2.195790         1.007608        -0.097852
 O         1.838778         2.354807        -0.379930
 H        -0.148725         0.477571         1.446141
 H        -0.717437        -0.227031        -0.147800
 H        -0.201718        -1.395266         1.234238
 H         2.792491        -1.929398        -0.385530
 H         1.992247        -1.218803        -1.865939
 H         4.069454         0.558124        -1.380954
 H         4.154916        -1.001610         1.483103
 H         4.678185         0.687002         0.959209
 H         1.265819         1.684290         2.406372
 H         1.803036         2.333278        -1.356226
