19
Iteration:  1973charge 0 multiplicity 1
 C         0.104888        -0.258188         0.777271
 C         1.473999        -0.183184         0.206916
 C         2.316922        -0.989699        -0.736838
 C         3.423498         0.121407        -0.515252
 C         3.756461        -0.027523         0.981180
 C         2.413213         0.449974         1.265096
 O         1.684951         0.630328         2.483187
 C         2.180535         1.110426        -0.093774
 O         1.735637         2.322163        -0.688267
 H        -0.260562         0.186446         1.681560
 H        -0.524443        -0.060129        -0.078714
 H        -0.095969        -1.372104         0.812939
 H         2.616371        -1.990813        -0.403598
 H         1.954231        -0.876987        -1.777475
 H         4.131673         0.256167        -1.285745
 H         4.043706        -1.116965         1.238862
 H         4.618272         0.563138         1.408474
 H         1.885585         1.432141         2.970003
 H         1.061871         2.032672        -1.341144
