19
Iteration:   198
 C        -0.024794        -0.112432         0.106138
 C         1.433601        -0.145816         0.248930
 C         2.221623        -1.005780        -0.685078
 C         3.359509         0.110610        -0.456253
 C         3.820165        -0.061099         1.016733
 C         2.381665         0.347438         1.374623
 O         1.846334         0.686346         2.681494
 C         2.219765         1.091623         0.006906
 O         1.864085         2.285953        -0.516369
 H        -0.653930         0.471098         0.769681
 H        -0.163216         0.295439        -0.914047
 H        -0.355175        -1.115159         0.020743
 H         2.334990        -2.109286        -0.637325
 H         1.877366        -0.823699        -1.696383
 H         4.057174         0.226000        -1.278336
 H         4.163072        -1.103500         1.182801
 H         4.543565         0.632425         1.424706
 H         1.037794         0.132864         2.750876
 H         1.062618         2.117115        -1.025642
