19
Iteration:  3555charge 0 multiplicity 1
 C        -0.166024        -0.311419         0.118971
 C         1.303854        -0.120503         0.050124
 C         2.232560        -0.740970        -0.929717
 C         3.262606         0.305804        -0.598202
 C         3.808990        -0.175750         0.801240
 C         2.445241         0.219539         1.245206
 O         2.090393         0.427366         2.539800
 C         2.085186         1.126373         0.125328
 O         1.871169         2.461938         0.216246
 H        -0.647195         0.735067         0.192052
 H        -0.503727        -0.839783        -0.839413
 H        -0.647353        -0.864461         0.943435
 H         2.569577        -1.801094        -0.712572
 H         1.745669        -0.701936        -1.941281
 H         3.849615         0.641459        -1.502276
 H         4.181774        -1.225856         0.938902
 H         4.568674         0.536624         1.149180
 H         2.672474        -0.155064         3.044560
 H         1.360870         2.779971        -0.533868
