19
Iteration:  3668charge 0 multiplicity 1
 C        -0.133494        -0.337832         0.251139
 C         1.336806        -0.092960         0.087045
 C         2.134890        -0.596545        -1.069776
 C         3.266002         0.360663        -0.620462
 C         3.780189        -0.193737         0.812165
 C         2.400048         0.172165         1.270903
 O         2.035908         0.229561         2.614455
 C         2.203170         1.184192         0.176346
 O         1.957753         2.550732         0.071266
 H        -0.300440        -1.448282         0.477488
 H        -0.692739         0.246957         0.977655
 H        -0.553336        -0.098266        -0.825646
 H         2.528732        -1.647995        -1.061929
 H         1.642178        -0.342274        -2.034248
 H         3.943311         0.776860        -1.335842
 H         4.083834        -1.294225         0.835433
 H         4.597847         0.390671         1.146661
 H         2.080362        -0.686828         2.989861
 H         1.130023         2.640414        -0.439435
