19
Iteration:  2978
 C        -0.153076        -0.530449         0.172195
 C         1.346553        -0.180965         0.158675
 C         2.216189        -0.908433        -0.910807
 C         3.298840         0.135818        -0.571471
 C         3.856162        -0.120470         0.802208
 C         2.402647         0.280981         1.349308
 O         1.968787         0.800179         2.507504
 C         2.136935         1.075166        -0.018899
 O         1.911514         2.464297         0.032499
 H        -0.278786        -1.571429        -0.121863
 H        -0.456745        -0.552785         1.189716
 H        -0.954339         0.119006        -0.274898
 H         2.478857        -1.973865        -0.869152
 H         1.713032        -0.755610        -1.868931
 H         4.009937         0.564844        -1.291138
 H         4.232354        -1.038939         1.012300
 H         4.549352         0.776738         0.952387
 H         2.421079         1.626432         2.785321
 H         1.154536         2.526144         0.649308
