19
Iteration:  4904
 C        -0.175044        -0.017418         0.162883
 C         1.273793         0.190541        -0.053919
 C         2.065150        -0.019875        -1.355823
 C         3.238008         0.645573        -0.674314
 C         3.758301        -0.368122         0.373452
 C         2.375640        -0.207890         1.156553
 O         2.129518        -0.655552         2.478211
 C         2.228227         1.200538         0.494145
 O         2.034691         2.574622         0.939959
 H        -0.746388         0.888490         0.252423
 H        -0.469546        -0.602866        -0.729437
 H        -0.392960        -0.677313         1.009658
 H         2.295322        -0.892758        -1.891005
 H         1.681269         0.668118        -2.177842
 H         3.824131         1.340758        -1.212774
 H         4.217752        -1.224287        -0.111843
 H         4.527704        -0.036200         1.011339
 H         1.602137        -1.502395         2.360774
 H         1.876821         3.194985         0.177378
