19
Iteration:  4078
 C        -0.134179        -0.192262         0.109482
 C         1.352455        -0.046565         0.110242
 C         2.164442        -0.428292        -1.184492
 C         3.238698         0.444981        -0.705058
 C         3.714679        -0.282357         0.634337
 C         2.344253         0.085147         1.197144
 O         2.188775         0.070570         2.592174
 C         2.182990         1.151626         0.200387
 O         1.888415         2.436923         0.477240
 H        -0.301000        -1.239141        -0.250248
 H        -0.673308        -0.083839         1.084396
 H        -0.538442         0.558754        -0.546987
 H         2.535206        -1.492384        -1.186103
 H         1.617700        -0.290819        -2.125838
 H         3.890967         0.955715        -1.351822
 H         4.133759        -1.240091         0.526538
 H         4.574588         0.425930         0.925833
 H         1.205095         0.008205         2.667845
 H         2.170134         2.448809         1.393954
