19
Iteration:  2565charge 0 multiplicity 1
 C        -0.077674        -0.558941         0.338270
 C         1.378800        -0.142996         0.185897
 C         2.289907        -0.934338        -0.785159
 C         3.395801         0.167108        -0.601732
 C         3.735956        -0.124133         0.920981
 C         2.307443         0.388823         1.332839
 O         1.854669         0.717093         2.614162
 C         2.213534         1.153119        -0.021079
 O         1.934537         2.436896        -0.329314
 H        -0.426133        -0.897690         1.331716
 H        -0.856646         0.226896         0.091317
 H        -0.338819        -1.462538        -0.317477
 H         2.424542        -1.982429        -0.408587
 H         1.644034        -0.939007        -1.670622
 H         4.074194         0.621516        -1.328161
 H         4.000895        -1.151571         1.129172
 H         4.564435         0.572854         1.264123
 H         1.951445         1.668772         2.732522
 H         1.614818         2.470144        -1.243861
