19
Iteration:  2643charge 0 multiplicity 1
 C        -0.074889        -0.127617         0.364520
 C         1.473730        -0.306737         0.210602
 C         2.290229        -0.985858        -0.812851
 C         3.450905         0.235824        -0.539742
 C         3.870478        -0.096858         0.972842
 C         2.435716         0.305245         1.253922
 O         1.819053         0.643243         2.425955
 C         2.254398         1.077129        -0.002349
 O         1.603589         2.340438        -0.211098
 H        -0.446259         0.779566        -0.123425
 H        -0.637748        -1.039087        -0.096305
 H        -0.561666        -0.294900         1.367483
 H         2.704783        -2.016037        -0.575442
 H         1.802266        -1.137868        -1.780482
 H         4.217631         0.401888        -1.263283
 H         4.093739        -1.085191         1.124467
 H         4.577386         0.539287         1.548824
 H         1.895541         1.564452         2.744243
 H         1.382409         2.301113        -1.171620
