19
Iteration:  1305
 C        -0.085067        -0.423953         0.178244
 C         1.449546        -0.192151         0.125379
 C         2.403014        -0.972582        -0.786322
 C         3.524268         0.083345        -0.451999
 C         3.659986        -0.097576         1.152461
 C         2.287692         0.468983         1.318286
 O         1.899685         0.846412         2.590479
 C         2.221537         1.125655        -0.044519
 O         1.642964         2.304072        -0.461905
 H        -0.577008         0.470558         0.638632
 H        -0.560618        -0.469985        -0.816567
 H        -0.357156        -1.321101         0.787138
 H         2.708253        -1.979421        -0.518401
 H         2.219325        -0.813539        -1.862587
 H         4.333965         0.447597        -1.020303
 H         3.858556        -1.159494         1.437050
 H         4.440117         0.546624         1.691990
 H         1.510447         0.083027         3.044781
 H         2.402289         2.864962        -0.768953
