19
Iteration:  4356
 C        -0.130123        -0.186169         0.232356
 C         1.312728         0.121948         0.002935
 C         2.098375        -0.294521        -1.243342
 C         3.292054         0.525847        -0.564653
 C         3.759383        -0.299095         0.465136
 C         2.315250        -0.018809         1.203263
 O         2.120913        -0.399913         2.525597
 C         2.189395         1.265224         0.379096
 O         1.937052         2.606620         0.437606
 H        -0.256068        -0.549240         1.254100
 H        -0.830146         0.660093         0.231944
 H        -0.519675        -1.049790        -0.384439
 H         2.409270        -1.329340        -1.274121
 H         1.774144         0.020300        -2.234228
 H         3.945924         1.135976        -1.107336
 H         4.186753        -1.291810         0.382410
 H         4.526378         0.165988         1.122426
 H         1.192887        -0.390644         2.782811
 H         2.803516         2.900389         0.706388
