19
Iteration:  3944charge 0 multiplicity 1
 C        -0.171541        -0.167318         0.156479
 C         1.303952        -0.061594         0.091166
 C         2.150904        -0.543082        -1.181880
 C         3.340163         0.379274        -0.649048
 C         3.845438        -0.223904         0.604830
 C         2.461501         0.092549         1.221272
 O         2.081215         0.037091         2.690619
 C         2.153730         1.177166         0.229238
 O         1.822530         2.543679         0.286232
 H        -0.404725         0.509453         0.994645
 H        -0.691082         0.217526        -0.737627
 H        -0.592698        -1.106901         0.553561
 H         2.368855        -1.629545        -1.356666
 H         1.827055        -0.099134        -2.145515
 H         4.008395         0.784587        -1.434960
 H         3.966867        -1.323762         0.569726
 H         4.673604         0.344573         1.031552
 H         1.405351        -0.689158         2.680509
 H         2.175059         2.823935         1.140673
