19
Iteration:  3551charge 0 multiplicity 1
 C        -0.174579        -0.316051         0.105259
 C         1.246889        -0.154285         0.073482
 C         2.247627        -0.763940        -0.918553
 C         3.274067         0.324632        -0.624475
 C         3.796695        -0.185527         0.794288
 C         2.437207         0.265329         1.236247
 O         2.106052         0.420528         2.539696
 C         2.112637         1.123092         0.178517
 O         1.864025         2.472084         0.209386
 H        -0.525620         0.691358         0.139715
 H        -0.608814        -0.631050        -0.916035
 H        -0.619613        -0.947782         0.849023
 H         2.646616        -1.790704        -0.852097
 H         1.708157        -0.675099        -1.873835
 H         3.954298         0.556591        -1.430963
 H         4.132950        -1.172620         0.901733
 H         4.647819         0.520061         1.137834
 H         2.702744        -0.102577         3.115796
 H         1.356440         2.721332        -0.601046
