19
Iteration:  1080charge 0 multiplicity 1
 C        -0.090217        -0.199931         0.285707
 C         1.414334        -0.165267         0.070694
 C         2.392687        -0.937105        -0.786598
 C         3.475411         0.128354        -0.388120
 C         3.797253        -0.062922         1.165898
 C         2.313731         0.398875         1.343798
 O         1.668950         0.535647         2.558823
 C         2.197997         1.093195         0.045019
 O         1.869764         2.282779        -0.630559
 H        -0.454613         0.852648         0.422574
 H        -0.588686        -0.540969        -0.656486
 H        -0.474483        -0.889731         1.034054
 H         2.534037        -2.034943        -0.675086
 H         2.254123        -0.701804        -1.813265
 H         4.323314         0.313331        -0.967887
 H         4.323679        -1.002357         1.544134
 H         4.408008         0.811071         1.333355
 H         2.180946         1.233612         3.090978
 H         1.055035         2.759643        -0.437855
