19
Iteration:  4645charge 0 multiplicity 1
 C        -0.200599         0.207509         0.064765
 C         1.314626         0.083553         0.039854
 C         2.116043        -0.188955        -1.307237
 C         3.258528         0.626577        -0.634021
 C         3.761584        -0.323427         0.390682
 C         2.491376        -0.233908         1.244413
 O         2.194690        -0.515520         2.576486
 C         2.231345         1.155419         0.413375
 O         1.753031         2.487677         0.695971
 H        -0.459142         1.227649         0.416638
 H        -0.435141         0.182502        -0.989666
 H        -0.766820        -0.568414         0.631484
 H         2.410711        -1.188037        -1.718093
 H         1.668868         0.377174        -2.174727
 H         3.879969         1.285640        -1.198128
 H         4.044796        -1.360379         0.067470
 H         4.586425         0.078902         0.937222
 H         1.885108        -1.470317         2.571159
 H         2.549449         2.899986         1.161130
