19
Iteration:  1287charge 0 multiplicity 1
 C        -0.004792        -0.281185         0.275002
 C         1.432874        -0.152910         0.052693
 C         2.457089        -0.992843        -0.688469
 C         3.446814         0.185011        -0.375090
 C         3.729170        -0.058516         1.080029
 C         2.253674         0.277675         1.296623
 O         1.751969         0.762519         2.495706
 C         2.222401         1.064182        -0.039116
 O         1.690666         2.365734        -0.454398
 H        -0.395944         0.442151         1.005517
 H        -0.674247        -0.240241        -0.592489
 H        -0.153983        -1.290681         0.589708
 H         2.595578        -1.995807        -0.255954
 H         2.255986        -1.267664        -1.707128
 H         4.252103         0.161494        -1.086891
 H         4.208506        -0.960481         1.424832
 H         4.407710         0.757690         1.399569
 H         2.020872         0.125877         3.176357
 H         2.140496         2.697636        -1.268003
