19
Iteration:  4325
 C        -0.142863        -0.204759         0.217907
 C         1.381176        -0.065780         0.059599
 C         2.070159        -0.276062        -1.292078
 C         3.280512         0.452487        -0.688273
 C         3.814925        -0.379999         0.558993
 C         2.414149         0.097882         1.156923
 O         2.056395        -0.166337         2.453589
 C         2.245321         1.215347         0.301383
 O         1.864953         2.525366         0.657267
 H        -0.401037        -1.080320         0.810333
 H        -0.504784         0.701025         0.727978
 H        -0.672212        -0.310047        -0.771900
 H         2.373850        -1.305684        -1.658001
 H         1.532424         0.388561        -2.036222
 H         3.988071         0.978308        -1.289474
 H         3.966992        -1.484278         0.535773
 H         4.617846         0.112811         1.068200
 H         1.135731         0.205866         2.553769
 H         2.667863         2.928414         1.106349
