19
Iteration:  1716
 C        -0.109405        -0.300699         0.353065
 C         1.423273        -0.315076         0.309463
 C         2.371219        -1.009183        -0.741508
 C         3.434057         0.157430        -0.456103
 C         3.801147        -0.085584         0.985606
 C         2.336722         0.404453         1.251512
 O         2.020486         0.951171         2.530852
 C         2.187806         1.001669        -0.104653
 O         1.649304         2.240246        -0.542734
 H        -0.397965         0.519285         0.983071
 H        -0.619458        -0.116610        -0.631414
 H        -0.437878        -1.234833         0.832249
 H         2.588321        -2.065224        -0.430670
 H         1.885696        -0.969279        -1.706431
 H         4.114281         0.471701        -1.157828
 H         4.343900        -0.957925         1.259089
 H         4.293249         0.931889         1.343677
 H         1.169022         0.563383         2.795724
 H         1.213375         2.529990         0.293478
