19
Iteration:   870
 C        -0.069764        -0.181731         0.339552
 C         1.477064        -0.138272         0.230800
 C         2.375513        -0.854531        -0.776809
 C         3.378779         0.172830        -0.373199
 C         3.699006        -0.011075         1.106406
 C         2.341325         0.492535         1.391352
 O         1.722900         0.324536         2.633963
 C         2.208568         1.166476         0.008710
 O         1.842956         2.227064        -0.808063
 H        -0.431102         0.810812         0.711875
 H        -0.587562        -0.360928        -0.636930
 H        -0.427761        -1.035221         0.973839
 H         2.467143        -1.926510        -0.753834
 H         1.939089        -0.519987        -1.668197
 H         4.405542         0.331812        -0.939057
 H         3.918597        -1.083609         1.429428
 H         4.629949         0.627602         1.364796
 H         1.647351         1.155947         3.107290
 H         2.650139         2.376411        -1.358813
