19
Iteration:  2400
 C        -0.014547        -0.261521         0.373577
 C         1.480472        -0.156320         0.228991
 C         2.283858        -0.988589        -0.754327
 C         3.472430         0.110611        -0.551446
 C         3.729094        -0.097707         0.946717
 C         2.376309         0.362816         1.368533
 O         1.876220         0.821215         2.586734
 C         2.289569         1.073864        -0.033694
 O         1.647923         2.224209        -0.473336
 H        -0.409158         0.755400         0.190254
 H        -0.398741        -0.869954        -0.421828
 H        -0.363631        -0.512946         1.433850
 H         2.678310        -1.993051        -0.467319
 H         1.883450        -0.909103        -1.756101
 H         4.312821         0.306673        -1.272011
 H         4.090337        -1.040547         1.473127
 H         4.682452         0.615914         1.336463
 H         1.081820         1.311991         2.331654
 H         0.852866         2.059632        -1.028978
