19
Iteration:  3591charge 0 multiplicity 1
 C        -0.109882        -0.352954         0.434923
 C         1.419382        -0.184884         0.082880
 C         2.261723        -0.644070        -1.098601
 C         3.330755         0.225903        -0.689070
 C         3.767743        -0.154833         0.753499
 C         2.424354         0.247230         1.215995
 O         1.893974         0.395716         2.483514
 C         2.138144         1.165788         0.137413
 O         1.922420         2.504069         0.219208
 H        -0.770619         0.189310        -0.322783
 H        -0.466718        -1.366056         0.342883
 H        -0.212326        -0.040128         1.543404
 H         2.500167        -1.723816        -1.044790
 H         1.866419        -0.418645        -2.103536
 H         4.044614         0.587583        -1.434272
 H         4.113608        -1.234914         1.054219
 H         4.483318         0.533158         1.122988
 H         1.374490        -0.390593         2.686182
 H         1.425855         2.813315        -0.546208
