19
Iteration:  2325charge 0 multiplicity 1
 C        -0.081465        -0.652971         0.480581
 C         1.300419        -0.211998         0.189220
 C         2.246723        -1.006125        -0.645120
 C         3.311326         0.058723        -0.529486
 C         3.813996         0.047401         0.953091
 C         2.349707         0.542924         1.238062
 O         1.889090         0.798790         2.545194
 C         2.072404         1.114564        -0.069081
 O         2.058237         2.447564        -0.496121
 H        -0.431359        -0.469075         1.561811
 H        -0.798115        -0.145676        -0.233639
 H        -0.266965        -1.750775         0.303005
 H         2.480870        -1.884768        -0.005567
 H         1.763469        -1.281278        -1.621632
 H         4.152760         0.292820        -1.229419
 H         4.335647        -0.782496         1.245495
 H         4.592062         0.845685         1.302790
 H         0.955978         1.121429         2.513350
 H         2.107048         2.383711        -1.459754
