19
Iteration:  3522charge 0 multiplicity 1
 C        -0.075173        -0.261644         0.150453
 C         1.341772        -0.135991         0.126355
 C         2.237804        -0.719391        -1.053814
 C         3.291122         0.279513        -0.651155
 C         3.773063        -0.257376         0.816517
 C         2.361715         0.191188         1.282253
 O         2.091068         0.447872         2.746421
 C         2.156491         1.129726         0.075693
 O         1.759151         2.461848         0.087705
 H        -0.645635         0.327310         0.943295
 H        -0.371369         0.359625        -0.710906
 H        -0.397898        -1.282687         0.042682
 H         2.533018        -1.800285        -1.091833
 H         1.612067        -0.481847        -1.945970
 H         3.978334         0.628100        -1.478205
 H         4.178331        -1.294238         0.960260
 H         4.495958         0.506528         1.144603
 H         2.792363        -0.027522         3.199001
 H         1.379630         2.764011        -0.769424
