19
Iteration:  1330charge 0 multiplicity 1
 C        -0.024149        -0.490388         0.123311
 C         1.441122        -0.206107         0.177670
 C         2.312495        -0.896235        -0.814826
 C         3.367010         0.120610        -0.425269
 C         3.778805        -0.155344         1.054657
 C         2.380570         0.452612         1.394606
 O         1.862888         0.954960         2.641671
 C         2.178551         1.042838         0.055839
 O         1.779488         2.253950        -0.525806
 H        -0.654181         0.430958         0.130071
 H        -0.273548        -0.897066        -0.892671
 H        -0.388560        -1.297244         0.753031
 H         2.686235        -1.858976        -0.883143
 H         1.973931        -0.714110        -1.847426
 H         4.137220         0.633443        -1.004849
 H         4.084271        -1.194275         1.319838
 H         4.670352         0.453307         1.438067
 H         0.876676         0.830796         2.663147
 H         1.599396         2.829449         0.251207
