19
Iteration:    30
 C        -0.116380        -0.654535         0.263304
 C         1.325444        -0.256803         0.164870
 C         2.210222        -0.906458        -0.770073
 C         3.370703         0.103838        -0.459539
 C         3.797565        -0.079526         1.007980
 C         2.275401         0.422477         1.285776
 O         1.720401         0.917573         2.523722
 C         2.225495         1.100780        -0.045823
 O         2.243422         2.410643        -0.349256
 H        -0.690679         0.244519         0.535459
 H        -0.382737        -0.690950        -0.802232
 H        -0.505851        -1.468062         0.898414
 H         2.456414        -1.942105        -0.248739
 H         1.972104        -0.924210        -1.837951
 H         4.046743         0.443559        -1.332436
 H         4.094069        -1.092597         1.373430
 H         4.363019         0.848035         1.183431
 H         0.750316         0.629949         2.467454
 H         1.628359         2.921293         0.184122
