19
Iteration:   240
 C        -0.061985        -0.330976         0.440817
 C         1.353736        -0.187686         0.053613
 C         2.353491        -0.981341        -0.845293
 C         3.473306         0.119649        -0.354508
 C         3.638286        -0.200470         1.088229
 C         2.230644         0.344846         1.209143
 O         1.858230         0.879856         2.378005
 C         2.182141         1.026869        -0.159961
 O         1.955629         2.415190        -0.227868
 H        -0.401495         0.431223         1.189862
 H        -0.813323        -0.355338        -0.414225
 H        -0.052954        -1.324490         0.960460
 H         2.571440        -1.996328        -0.496682
 H         2.184459        -0.898007        -1.866144
 H         4.324227         0.289639        -0.945938
 H         3.764763        -1.374177         1.252754
 H         4.378606         0.394823         1.628594
 H         1.011767         0.719942         2.726919
 H         2.177494         2.880392        -1.056204
