19
Iteration:  3502charge 0 multiplicity 1
 C        -0.117915        -0.231810         0.275127
 C         1.377789        -0.138281         0.103800
 C         2.193684        -0.688914        -1.082489
 C         3.374010         0.275119        -0.527185
 C         3.741950        -0.177888         0.831636
 C         2.429815         0.233624         1.256666
 O         2.023906         0.397701         2.556429
 C         2.269826         1.149095         0.198179
 O         1.740864         2.411710        -0.006683
 H        -0.401845        -0.235549         1.359921
 H        -0.773153         0.516659        -0.083668
 H        -0.370663        -1.211720        -0.188098
 H         2.195008        -1.780082        -1.039604
 H         1.739118        -0.361428        -2.022367
 H         4.076057         0.628354        -1.305307
 H         3.968907        -1.316615         0.839814
 H         4.555668         0.357666         1.190321
 H         2.502877        -0.156789         3.190224
 H         1.246095         2.528035        -0.820875
