19
Iteration:  4090
 C        -0.166471        -0.203867         0.099049
 C         1.288249        -0.079943         0.046471
 C         2.110918        -0.528533        -1.108394
 C         3.338881         0.473884        -0.721155
 C         3.758169        -0.234159         0.611273
 C         2.366878         0.062305         1.176735
 O         2.210161         0.039952         2.530331
 C         2.213569         1.207670         0.200763
 O         1.876787         2.481054         0.527311
 H        -0.563272        -1.251872         0.066533
 H        -0.639618         0.342111         0.954215
 H        -0.545434         0.207533        -0.830599
 H         2.406113        -1.621597        -1.226391
 H         1.648387        -0.105685        -2.026043
 H         3.947103         0.930510        -1.507478
 H         3.959177        -1.265075         0.670479
 H         4.358479         0.277214         1.467580
 H         1.383053        -0.034643         2.987078
 H         1.947498         2.774263         1.451854
