19
Iteration:  1711
 C        -0.111790        -0.283110         0.390882
 C         1.432647        -0.285831         0.243391
 C         2.355988        -1.011721        -0.760367
 C         3.439775         0.148210        -0.470390
 C         3.842651        -0.057464         1.015438
 C         2.342337         0.415632         1.278635
 O         1.987297         0.945190         2.525653
 C         2.212786         0.983790        -0.137147
 O         1.602268         2.231274        -0.513577
 H        -0.459731         0.570356         1.041190
 H        -0.595627        -0.185519        -0.565760
 H        -0.601857        -1.093663         0.962639
 H         2.752688        -1.998223        -0.473521
 H         1.938952        -1.101408        -1.798358
 H         4.299708         0.208228        -1.287142
 H         4.411031        -1.027029         1.367750
 H         4.381535         0.784561         1.368450
 H         1.068214         0.580011         2.613003
 H         1.402010         2.499226         0.412566
