19
Iteration:  1566charge 0 multiplicity 1
 C         0.015823        -0.425899         0.446702
 C         1.456500        -0.193915         0.096138
 C         2.391123        -1.021923        -0.759163
 C         3.418516         0.072986        -0.491494
 C         3.708812        -0.046305         0.976839
 C         2.332993         0.393630         1.322350
 O         1.756784         0.963940         2.470631
 C         2.218596         1.071147        -0.088220
 O         1.709954         2.324505        -0.376915
 H        -0.358023         0.440575         0.995383
 H        -0.673846        -0.622427        -0.411321
 H        -0.069891        -1.312115         1.122272
 H         2.717951        -1.945081        -0.235051
 H         2.186215        -1.293910        -1.793112
 H         4.062393         0.379463        -1.285995
 H         3.986333        -1.159417         1.364845
 H         4.571274         0.614308         1.155057
 H         1.513710         0.298882         3.172015
 H         2.277210         2.771136        -1.056476
