19
Iteration:  4595
 C        -0.126183        -0.172535         0.277297
 C         1.254219         0.135020        -0.068791
 C         2.101350        -0.073728        -1.391529
 C         3.348578         0.646899        -0.680011
 C         3.759557        -0.446657         0.429095
 C         2.341775        -0.089913         1.179138
 O         2.036883        -0.430125         2.515249
 C         2.272854         1.261168         0.410162
 O         1.947521         2.543253         0.715004
 H        -0.101480        -0.365763         1.363602
 H        -0.790818         0.688125         0.020118
 H        -0.479919        -1.058649        -0.306859
 H         2.308528        -1.200713        -1.566229
 H         1.653146         0.264254        -2.326486
 H         4.217294         0.988167        -1.235006
 H         4.009816        -1.441712         0.072760
 H         4.700338        -0.074472         0.983991
 H         1.078807        -0.632262         2.563602
 H         2.433538         2.852629         1.477846
