19
Iteration:  3890charge 0 multiplicity 1
 C        -0.129268        -0.212272         0.315601
 C         1.401599        -0.069429         0.032944
 C         2.220870        -0.509303        -1.264433
 C         3.375488         0.293251        -0.726724
 C         3.752532        -0.338646         0.696799
 C         2.427968         0.079105         1.171153
 O         2.033176         0.283828         2.590108
 C         2.210047         1.152014         0.152742
 O         1.711837         2.478646         0.426473
 H        -0.462216        -0.977744         1.064473
 H        -0.388542         0.771053         0.816343
 H        -0.673447        -0.335705        -0.641041
 H         2.423949        -1.576115        -1.604581
 H         1.710627         0.047337        -2.117586
 H         4.202421         0.654301        -1.381283
 H         4.180293        -1.393981         0.802012
 H         4.583771         0.389822         1.107255
 H         1.299895        -0.383107         2.612091
 H         2.293154         2.830221         1.127402
