19
Iteration:  3823charge 0 multiplicity 1
 C        -0.112113        -0.407667         0.328498
 C         1.288826        -0.018106         0.071722
 C         2.122935        -0.564128        -1.083170
 C         3.247176         0.414932        -0.617926
 C         3.749664        -0.232838         0.744262
 C         2.397296         0.291370         1.220211
 O         1.985915        -0.012742         2.545300
 C         2.137723         1.245863         0.142491
 O         2.126241         2.613246         0.125819
 H        -0.663251        -0.820553        -0.543934
 H        -0.054510        -1.157403         1.158131
 H        -0.777146         0.425606         0.719374
 H         2.363044        -1.675093        -1.149679
 H         1.710948        -0.270691        -2.095501
 H         3.998458         0.938350        -1.300652
 H         3.922060        -1.308258         1.064707
 H         4.548093         0.366188         1.229240
 H         2.128296        -0.920730         2.806255
 H         1.262993         3.031305         0.280615
