19
Iteration:  2317charge 0 multiplicity 1
 C        -0.126709        -0.702882         0.447412
 C         1.317253        -0.157331         0.228915
 C         2.206521        -1.049871        -0.635275
 C         3.333863         0.043137        -0.536105
 C         3.886091         0.090690         0.971871
 C         2.332051         0.581659         1.267561
 O         1.884937         0.830931         2.498476
 C         2.115106         1.111187        -0.093390
 O         2.042917         2.416747        -0.429370
 H        -0.619048        -0.517626         1.450554
 H        -0.877436        -0.074492        -0.169684
 H        -0.267189        -1.710330         0.150522
 H         2.732924        -2.024168        -0.394279
 H         1.773254        -1.265641        -1.682833
 H         3.988630         0.102620        -1.443385
 H         4.257673        -1.017455         1.326368
 H         4.530094         0.895968         1.133160
 H         1.030896         1.248868         2.679169
 H         2.042179         2.383965        -1.392966
