19
Iteration:  2605charge 0 multiplicity 1
 C        -0.195910        -0.295409         0.154345
 C         1.394045        -0.244089         0.218552
 C         2.299976        -1.076327        -0.796663
 C         3.472684         0.118820        -0.625391
 C         3.789967         0.022291         0.928278
 C         2.395085         0.369596         1.276342
 O         1.908379         0.757960         2.620950
 C         2.196072         1.036570        -0.062733
 O         1.739290         2.349833        -0.140084
 H        -0.498944         0.518403         0.857408
 H        -0.426210        -0.059089        -0.858590
 H        -0.588725        -1.213550         0.592674
 H         2.599543        -2.079552        -0.452310
 H         1.989976        -1.126194        -1.864614
 H         4.359642         0.224704        -1.323851
 H         4.269018        -0.926937         1.392695
 H         4.398350         0.814606         1.284229
 H         2.539670         1.472744         2.888415
 H         0.968365         2.439938        -0.743212
