19
Iteration:  3293
 C        -0.107127        -0.277115         0.483145
 C         1.364937        -0.135012         0.114704
 C         2.191877        -0.772472        -1.017026
 C         3.339225         0.280022        -0.632629
 C         3.745212        -0.083051         0.855685
 C         2.397900         0.299848         1.271310
 O         2.013446         0.334914         2.616624
 C         2.168388         1.145325         0.049303
 O         1.905239         2.435917        -0.240312
 H        -0.596423        -0.975879        -0.288399
 H        -0.338655        -0.719519         1.457104
 H        -0.593331         0.739177         0.459957
 H         2.471267        -1.818740        -0.783675
 H         1.850183        -0.634902        -2.054666
 H         4.057738         0.715443        -1.351566
 H         4.192181        -1.058201         1.181681
 H         4.457629         0.570093         1.190943
 H         1.614563        -0.497267         2.932173
 H         1.190572         2.824602         0.310455
