19
Iteration:  3578charge 0 multiplicity 1
 C        -0.125348        -0.356279         0.328287
 C         1.322009        -0.107848         0.024379
 C         2.216469        -0.800735        -1.053845
 C         3.389971         0.296607        -0.692441
 C         3.774449        -0.109003         0.743437
 C         2.325222         0.164849         1.227480
 O         1.968654         0.432029         2.578795
 C         2.239010         1.167450         0.094701
 O         1.895557         2.510204         0.252730
 H        -0.723475         0.553060        -0.086460
 H        -0.465267        -1.303923        -0.103686
 H        -0.472383        -0.305333         1.421808
 H         2.532561        -1.881392        -1.067666
 H         1.665965        -0.562386        -2.000772
 H         4.216177         0.484939        -1.438058
 H         4.338812        -1.105019         0.846036
 H         4.369011         0.670652         1.142100
 H         1.874906        -0.443975         3.041764
 H         1.341146         2.730499        -0.534863
