19
Iteration:  4865charge 0 multiplicity 1
 C        -0.116114         0.212667         0.336228
 C         1.350641        -0.013669        -0.013886
 C         2.160327        -0.061438        -1.347205
 C         3.305303         0.651375        -0.651562
 C         3.837013        -0.447417         0.411281
 C         2.415420        -0.147566         1.034690
 O         2.093065        -0.550277         2.370853
 C         2.249647         1.229214         0.349565
 O         1.722280         2.419067         0.982654
 H        -0.284787         0.899566         1.229668
 H        -0.533800         0.827535        -0.477979
 H        -0.707661        -0.714727         0.371713
 H         2.152204        -1.107406        -1.921860
 H         1.788461         0.708558        -2.009543
 H         4.028851         1.264269        -1.270722
 H         3.968422        -1.486524        -0.014791
 H         4.640474        -0.002842         1.088554
 H         1.702705        -1.410113         2.299963
 H         1.977859         2.978494         0.227828
