19
Iteration:  4282
 C        -0.224073        -0.198164         0.300738
 C         1.341089         0.008150        -0.073458
 C         2.189976        -0.351690        -1.288805
 C         3.392149         0.522116        -0.648092
 C         3.697308        -0.416842         0.562395
 C         2.414690         0.033820         1.132040
 O         2.139036         0.021626         2.420886
 C         2.200422         1.197405         0.253690
 O         1.839596         2.414087         0.691210
 H        -0.751161        -1.038139        -0.132940
 H        -0.324960        -0.272288         1.384581
 H        -0.826347         0.632944        -0.073391
 H         2.376752        -1.446827        -1.472630
 H         1.770147         0.154521        -2.192231
 H         4.163586         1.080972        -1.110211
 H         4.074823        -1.427755         0.332750
 H         4.534243        -0.024927         1.015124
 H         1.193960         0.277970         2.592454
 H         2.201885         2.509110         1.588566
