19
Iteration:   263
 C        -0.040208        -0.543749         0.496713
 C         1.351581        -0.177191         0.027355
 C         2.279039        -1.023270        -0.839685
 C         3.413334         0.057012        -0.582605
 C         3.676269        -0.211138         1.046098
 C         2.272959         0.383523         1.223390
 O         1.656510         1.021024         2.320630
 C         2.333154         1.102995        -0.008724
 O         2.121776         2.498266        -0.097581
 H        -0.612238         0.322294         0.906288
 H        -0.663085        -0.912029        -0.370208
 H        -0.004899        -1.352230         1.254679
 H         2.500724        -2.047013        -0.518694
 H         2.000667        -1.003301        -1.854596
 H         4.209977         0.050100        -1.352191
 H         3.812865        -1.285806         1.458428
 H         4.386111         0.489503         1.559966
 H         0.791245         0.554377         2.576518
 H         1.899956         2.807767        -1.010011
