19
Iteration:  1696
 C        -0.048317        -0.229529         0.460576
 C         1.433260        -0.220252         0.119516
 C         2.416564        -1.084479        -0.728722
 C         3.455679        -0.006008        -0.571087
 C         3.827255         0.031308         1.021868
 C         2.437072         0.406313         1.259130
 O         1.868239         0.912510         2.472434
 C         2.182084         1.048428        -0.060805
 O         1.552008         2.194149        -0.395874
 H        -0.312401         0.772185         0.854760
 H        -0.648021        -0.308380        -0.490519
 H        -0.250947        -1.147435         1.096129
 H         2.592297        -2.145428        -0.436658
 H         2.090264        -0.988484        -1.761369
 H         4.157700         0.246004        -1.278684
 H         3.954217        -0.912994         1.392979
 H         4.674612         0.714512         1.223651
 H         0.952491         0.691540         2.630283
 H         1.819805         2.990791         0.101258
