19
Iteration:  3905charge 0 multiplicity 1
 C        -0.046948        -0.141591         0.227969
 C         1.394286        -0.098750        -0.000119
 C         2.174309        -0.558661        -1.128681
 C         3.407621         0.331662        -0.702093
 C         3.782053        -0.333519         0.600998
 C         2.336858         0.025645         1.204490
 O         2.077134         0.243040         2.525527
 C         2.212787         1.232809         0.171475
 O         1.663715         2.469804         0.492498
 H        -0.211816        -0.556737         1.251823
 H        -0.549757         0.849205         0.163964
 H        -0.554930        -0.748081        -0.511146
 H         2.378659        -1.641201        -1.108607
 H         1.765058        -0.202066        -2.099928
 H         4.156956         0.567787        -1.416352
 H         4.058002        -1.379878         0.491060
 H         4.543133         0.230814         1.250383
 H         1.248988        -0.082733         2.900643
 H         2.381126         3.027559         0.888479
