19
Iteration:  2380
 C        -0.025647        -0.315787         0.526859
 C         1.407764        -0.153334         0.161405
 C         2.328986        -1.002564        -0.803221
 C         3.351687         0.045727        -0.437650
 C         3.835954        -0.077106         1.087668
 C         2.394377         0.484757         1.285463
 O         1.852797         0.750624         2.519694
 C         2.242183         1.098321        -0.046325
 O         1.729788         2.298201        -0.560119
 H        -0.414765         0.674659         0.896972
 H        -0.553891        -0.611602        -0.416265
 H        -0.049402        -1.053371         1.336564
 H         2.610705        -2.062854        -0.849938
 H         1.927312        -0.736131        -1.822115
 H         4.134295         0.299093        -1.181588
 H         4.025439        -1.090550         1.263862
 H         4.739432         0.600856         1.462288
 H         0.965348         1.111580         2.476814
 H         1.074080         2.099139        -1.239538
