19
Iteration:   497charge 0 multiplicity 1
 C        -0.021784        -0.620169         0.426849
 C         1.345226        -0.247773         0.117368
 C         2.348378        -0.841713        -0.884108
 C         3.424285         0.176474        -0.360458
 C         3.575104        -0.141255         1.084282
 C         2.110489         0.312593         1.262075
 O         1.647488         0.856731         2.412710
 C         2.221831         1.062067        -0.091382
 O         2.237649         2.446321        -0.384482
 H        -0.499968         0.075159         1.133713
 H        -0.605351        -0.459519        -0.501339
 H        -0.091824        -1.683889         0.766807
 H         2.511561        -1.911796        -0.786903
 H         2.017105        -0.591530        -1.862354
 H         4.184692         0.349395        -1.074528
 H         3.943614        -1.159516         1.201672
 H         4.271463         0.607723         1.573384
 H         2.198532         1.629604         2.521812
 H         2.062873         2.865331         0.481482
