19
Iteration:   384
 C        -0.013656         0.051947         0.191656
 C         1.518291        -0.190176         0.193422
 C         2.364811        -1.004050        -0.759100
 C         3.487962         0.094461        -0.401514
 C         3.754493        -0.112065         1.069723
 C         2.326022         0.373760         1.340838
 O         1.718137         0.685614         2.537077
 C         2.309009         1.093329         0.064225
 O         1.638727         2.116399        -0.498258
 H        -0.125153         1.129237         0.496361
 H        -0.491435        -0.039893        -0.816308
 H        -0.628790        -0.633887         0.836976
 H         2.612667        -2.076509        -0.609321
 H         2.059819        -0.912768        -1.755923
 H         4.333122         0.371181        -1.110516
 H         4.093815        -1.112656         1.437033
 H         4.556483         0.635796         1.333497
 H         0.847704         0.274594         2.489826
 H         2.261488         2.806209        -0.739345
