19
Iteration:  3089charge 0 multiplicity 1
 C        -0.035949        -0.333120         0.473669
 C         1.416950        -0.099795         0.181038
 C         2.182606        -0.780714        -0.975355
 C         3.275792         0.342309        -0.522029
 C         3.816842        -0.165781         0.864818
 C         2.416892         0.361859         1.335837
 O         1.898291         0.256312         2.638984
 C         2.200976         1.162685         0.032441
 O         1.762261         2.430898        -0.378911
 H        -0.254752         0.150565         1.371617
 H        -0.625812         0.080030        -0.333486
 H        -0.128221        -1.450844         0.500437
 H         2.390465        -1.829448        -0.884390
 H         1.772019        -0.637923        -1.974840
 H         3.987206         0.667825        -1.316036
 H         4.056237        -1.214734         1.045262
 H         4.746228         0.501487         1.138301
 H         2.054269         1.012070         3.233437
 H         2.335744         2.836872        -1.049998
