19
Iteration:   194charge 0 multiplicity 1
 C        -0.037799        -0.111073         0.065926
 C         1.437830        -0.131891         0.275096
 C         2.209293        -1.005290        -0.646318
 C         3.379142         0.109831        -0.496523
 C         3.822585        -0.044897         1.055624
 C         2.385025         0.346344         1.367459
 O         1.848468         0.659372         2.690651
 C         2.261588         1.081669         0.000983
 O         1.853800         2.270843        -0.547951
 H        -0.610628         0.542695         0.782433
 H        -0.100866         0.429226        -0.944828
 H        -0.472501        -1.177154        -0.009438
 H         2.314175        -2.089921        -0.523152
 H         1.791328        -0.715430        -1.601244
 H         3.903459         0.412291        -1.407358
 H         4.133907        -1.181613         1.125523
 H         4.512520         0.699010         1.500337
 H         1.106882         0.053086         2.788380
 H         0.905650         2.179016        -0.879735
