19
Iteration:  4306charge 0 multiplicity 1
 C        -0.043721        -0.160900         0.276154
 C         1.410918         0.037181        -0.068362
 C         2.092697        -0.303170        -1.358004
 C         3.322515         0.487318        -0.733232
 C         3.718166        -0.364496         0.546263
 C         2.378585        -0.102180         1.176799
 O         2.056835        -0.020819         2.569540
 C         2.218456         1.195680         0.275850
 O         1.825986         2.456182         0.681839
 H        -0.281598        -1.253689         0.402844
 H        -0.383271         0.348883         1.185046
 H        -0.662404         0.073354        -0.563119
 H         2.154832        -1.398346        -1.554264
 H         1.938282         0.323029        -2.239075
 H         4.045239         0.795322        -1.526016
 H         4.054304        -1.417967         0.357732
 H         4.602540         0.023327         1.002853
 H         1.191678         0.444873         2.538616
 H         2.248755         2.576225         1.582733
