19
Iteration:   400
 C        -0.010689         0.082790         0.207158
 C         1.425966        -0.224850         0.111238
 C         2.410045        -1.055736        -0.837561
 C         3.469204         0.086681        -0.467326
 C         3.806216        -0.044695         1.247738
 C         2.360543         0.360341         1.346048
 O         1.761374         0.679865         2.616714
 C         2.225500         0.928550        -0.110184
 O         1.657211         2.222833        -0.435817
 H        -0.285561         0.958558         0.738018
 H        -0.373752         0.292944        -0.790562
 H        -0.609892        -0.726387         0.576110
 H         2.707389        -2.040572        -0.500086
 H         2.084921        -0.975592        -1.965140
 H         4.246493         0.412805        -1.106742
 H         4.050591        -1.076228         1.551230
 H         4.428857         0.786567         1.701812
 H         0.823186         0.644107         2.634370
 H         2.184508         2.641771        -1.123282
