19
Iteration:   577
 C        -0.151840        -0.178163         0.105480
 C         1.351627        -0.235609         0.131817
 C         2.452378        -1.033860        -0.773552
 C         3.452453         0.156358        -0.375148
 C         3.779304        -0.097244         1.083113
 C         2.268557         0.394415         1.334968
 O         1.884368         0.710083         2.575839
 C         2.109014         1.006812        -0.050299
 O         1.833920         2.300093        -0.405395
 H        -0.544312         0.803668         0.379099
 H        -0.544352        -0.516583        -0.849918
 H        -0.560067        -0.832249         0.874271
 H         2.626447        -2.033169        -0.617599
 H         2.199825        -0.860249        -1.860732
 H         4.264872         0.513989        -1.076524
 H         4.145154        -1.148465         1.314373
 H         4.525174         0.605111         1.466557
 H         1.083648         1.250797         2.549527
 H         2.370836         2.863431         0.187970
