19
Iteration:  3640
 C        -0.059487        -0.408071         0.482130
 C         1.377769        -0.023706         0.015217
 C         2.226800        -0.595284        -1.118403
 C         3.308668         0.297737        -0.542419
 C         3.698761        -0.286838         0.771685
 C         2.374363         0.251066         1.251036
 O         1.961015         0.226004         2.574598
 C         2.223799         1.242008         0.097073
 O         1.895846         2.587701         0.059598
 H        -0.209232        -1.295663        -0.048817
 H        -0.299275        -0.676726         1.537438
 H        -0.728957         0.342162         0.260189
 H         2.561094        -1.613003        -1.263682
 H         1.849429        -0.169253        -2.055183
 H         4.135171         0.552686        -1.247471
 H         3.902063        -1.324087         0.778591
 H         4.679103         0.273517         1.038172
 H         1.438496        -0.600680         2.723385
 H         1.360266         2.744522        -0.758136
