19
Iteration:   207charge 0 multiplicity 1
 C        -0.052748        -0.138815         0.158280
 C         1.421527        -0.179106         0.218460
 C         2.280192        -0.976931        -0.795490
 C         3.370731         0.064636        -0.431557
 C         3.782476        -0.109737         0.981369
 C         2.347331         0.390959         1.405096
 O         1.858086         0.722486         2.628552
 C         2.224880         1.076410         0.031259
 O         1.858981         2.328001        -0.463821
 H        -0.637118         0.409245         0.931969
 H        -0.430285         0.175006        -0.862913
 H        -0.421140        -1.194757         0.232868
 H         2.517303        -2.027573        -0.504133
 H         1.953477        -0.929176        -1.770367
 H         4.239397         0.167209        -1.004767
 H         4.156043        -1.119169         1.438686
 H         4.536434         0.661145         1.160530
 H         0.977440         0.301177         2.784851
 H         1.349800         2.196484        -1.272160
