19
Iteration:  4623
 C        -0.164589         0.037097         0.063021
 C         1.272037         0.038814         0.062709
 C         2.050995        -0.168575        -1.241839
 C         3.271809         0.612766        -0.650902
 C         3.769945        -0.390029         0.528192
 C         2.382440        -0.062964         1.172416
 O         2.232983        -0.486640         2.411787
 C         2.255909         1.213500         0.441313
 O         1.852833         2.484933         0.723466
 H        -0.485468         0.661740         0.926898
 H        -0.364558         0.658174        -0.801459
 H        -0.658472        -0.954546         0.139355
 H         2.141740        -0.996582        -1.945570
 H         1.513660         0.578536        -1.917432
 H         4.001597         1.104758        -1.305357
 H         4.019257        -1.495627         0.404549
 H         4.542030         0.063504         1.086863
 H         1.537279        -1.126927         2.392709
 H         2.526156         3.106835         0.958571
