19
Iteration:  1085
 C        -0.141758        -0.149093         0.298954
 C         1.416256        -0.174872         0.040566
 C         2.400478        -0.956755        -0.787980
 C         3.483137         0.104453        -0.348743
 C         3.786341        -0.013952         1.157152
 C         2.315554         0.393243         1.349697
 O         1.672583         0.536513         2.494082
 C         2.249558         1.071116         0.054851
 O         1.846495         2.272947        -0.602868
 H        -0.463028         0.868702         0.491404
 H        -0.606884        -0.541904        -0.623579
 H        -0.585139        -0.841646         1.071579
 H         2.773472        -1.964857        -0.534562
 H         2.264702        -0.960837        -1.949139
 H         4.327057         0.319244        -1.122969
 H         4.381410        -0.883192         1.532005
 H         4.360819         0.947894         1.339921
 H         2.211407         0.982062         3.126539
 H         1.109499         2.791648        -0.203421
