19
Iteration:  2391
 C         0.010496        -0.233841         0.442575
 C         1.495661        -0.196156         0.210883
 C         2.282863        -0.947082        -0.821878
 C         3.453745         0.091303        -0.539864
 C         3.793853        -0.142139         1.045932
 C         2.402136         0.412389         1.314823
 O         1.844486         0.805906         2.580736
 C         2.244227         1.093654        -0.023880
 O         1.676304         2.258681        -0.517517
 H        -0.657841         0.673237         0.505201
 H        -0.470020        -0.872384        -0.344746
 H        -0.254998        -0.886952         1.300172
 H         2.367776        -1.963174        -0.385140
 H         1.850758        -1.064507        -1.833874
 H         4.277090         0.329016        -1.245402
 H         4.105959        -1.099204         1.394998
 H         4.507788         0.789682         1.306423
 H         0.995450         1.222028         2.381869
 H         0.957771         1.875334        -1.062533
