19
Iteration:  2164
 C        -0.083370        -0.477274         0.504538
 C         1.415384        -0.105755         0.207821
 C         2.237765        -1.049574        -0.642738
 C         3.309188         0.129687        -0.478994
 C         3.703041         0.047455         0.959795
 C         2.320675         0.577505         1.296729
 O         1.910688         0.552186         2.659093
 C         2.187022         1.145760        -0.163323
 O         1.928221         2.375150        -0.695272
 H        -0.682101         0.450671         0.580846
 H        -0.467446        -1.109518        -0.316328
 H        -0.097476        -1.004568         1.408031
 H         2.564788        -2.029415        -0.281295
 H         1.811602        -1.010406        -1.658053
 H         4.045541         0.160126        -1.341192
 H         4.295131        -0.849346         1.529353
 H         4.384951         0.849377         1.195781
 H         2.408859         1.055016         3.347745
 H         1.435789         2.409591        -1.528360
