19
Iteration:  2065charge 0 multiplicity 1
 C        -0.089575        -0.502814         0.311118
 C         1.365018        -0.256802         0.184335
 C         2.233650        -1.087849        -0.587872
 C         3.371425         0.014777        -0.647560
 C         3.832549        -0.021812         0.928858
 C         2.382218         0.416349         1.263618
 O         1.973055         1.090839         2.419723
 C         2.175325         0.994781        -0.109317
 O         1.767210         2.345556        -0.103105
 H        -0.633240         0.269883         0.892079
 H        -0.519452        -0.617478        -0.700814
 H        -0.107668        -1.447311         0.791257
 H         2.529297        -2.094713        -0.257920
 H         1.885556        -1.014403        -1.632071
 H         4.286868        -0.034176        -1.325584
 H         4.475942        -0.891814         1.307407
 H         4.432334         0.810941         1.177106
 H         1.471026         1.896056         2.101012
 H         1.289086         2.438460        -0.956816
