19
Iteration:  3344charge 0 multiplicity 1
 C         0.003430        -0.213394         0.343236
 C         1.440977        -0.186525         0.045573
 C         2.246836        -0.786403        -0.973415
 C         3.373697         0.208011        -0.668581
 C         3.793492        -0.186299         0.802949
 C         2.394147         0.260729         1.228364
 O         1.902081         0.603083         2.501833
 C         2.183651         1.119746         0.050902
 O         1.627105         2.326406         0.126955
 H        -0.622887        -0.886996        -0.180626
 H        -0.039147        -0.343041         1.476051
 H        -0.391483         0.779963         0.346779
 H         2.493200        -1.863654        -0.980484
 H         1.838980        -0.512385        -1.981414
 H         4.112461         0.364738        -1.423327
 H         4.053613        -1.219352         1.050386
 H         4.778546         0.246716         1.341630
 H         2.085062        -0.096622         3.125337
 H         2.178418         3.036873        -0.207200
