19
Iteration:  2988charge 0 multiplicity 1
 C        -0.107942        -0.522471         0.205114
 C         1.339014        -0.177322         0.177757
 C         2.156320        -0.878406        -0.886934
 C         3.250494         0.156014        -0.630502
 C         3.809520        -0.101697         0.825847
 C         2.443303         0.291947         1.247666
 O         1.962388         0.761890         2.511923
 C         2.202831         1.064214         0.064780
 O         1.908366         2.427533         0.045251
 H        -0.237070        -1.585373        -0.050593
 H        -0.605075        -0.300424         1.084029
 H        -0.618657         0.013808        -0.677132
 H         2.482571        -1.817856        -0.522148
 H         1.827832        -0.738036        -1.903410
 H         3.959479         0.476493        -1.393380
 H         4.406633        -0.959724         1.047197
 H         4.569865         0.721566         1.188890
 H         2.415291         1.621398         2.595763
 H         0.947554         2.519229         0.252929
