19
Iteration:  1986charge 0 multiplicity 1
 C         0.021506        -0.415588         0.617887
 C         1.465865        -0.135188         0.221752
 C         2.294023        -1.019915        -0.741266
 C         3.367159         0.049369        -0.472074
 C         3.853279        -0.021257         1.014459
 C         2.393564         0.594248         1.289999
 O         1.759584         0.647754         2.510135
 C         2.182929         1.144672        -0.125872
 O         1.721466         2.313226        -0.637636
 H         0.020088         0.195436         1.515612
 H        -0.691126         0.185589         0.017311
 H        -0.326314        -1.446680         0.799631
 H         2.366678        -2.108482        -0.564573
 H         1.976252        -0.991710        -1.813698
 H         4.088016         0.354867        -1.147403
 H         3.953349        -1.094017         1.509431
 H         4.628327         0.640998         1.154741
 H         2.275462         1.373180         2.954432
 H         1.266880         2.129850        -1.481907
