19
Iteration:   661charge 0 multiplicity 1
 C        -0.013199        -0.177265         0.378963
 C         1.430480        -0.163932         0.099881
 C         2.484900        -0.979075        -0.763751
 C         3.443031         0.132559        -0.422110
 C         3.703820        -0.039228         1.079596
 C         2.227919         0.290114         1.299490
 O         1.662021         0.668455         2.584461
 C         2.191214         1.096053        -0.086143
 O         1.863778         2.306256        -0.624705
 H        -0.127622         0.347508         1.335432
 H        -0.682576         0.427677        -0.270221
 H        -0.428954        -1.219323         0.388499
 H         2.740951        -2.038017        -0.352606
 H         2.370945        -0.958737        -1.826170
 H         4.200424         0.242029        -1.159276
 H         4.124561        -0.953760         1.436720
 H         4.383023         0.810109         1.337106
 H         1.552440        -0.118751         3.169749
 H         2.026769         2.924607         0.108425
