19
Iteration:  3280
 C        -0.129799        -0.350218         0.396508
 C         1.336952        -0.101803         0.144094
 C         2.228675        -0.817601        -0.983120
 C         3.207439         0.251206        -0.551379
 C         3.806932        -0.094957         0.805937
 C         2.357233         0.282129         1.312440
 O         2.081413         0.335965         2.708379
 C         2.179512         1.181017         0.055095
 O         1.975778         2.559352        -0.285800
 H        -0.551762        -0.934126        -0.458030
 H        -0.194541        -0.925645         1.357880
 H        -0.865599         0.444955         0.505009
 H         2.500058        -1.852179        -1.208202
 H         1.644200        -0.526222        -1.869430
 H         3.961682         0.526892        -1.254758
 H         4.061158        -1.211858         0.869483
 H         4.442889         0.736155         1.159594
 H         1.450702        -0.408174         2.717128
 H         1.010460         2.603237        -0.155463
