19
Iteration:  4472
 C        -0.136284        -0.098931         0.097503
 C         1.334811         0.124835        -0.063937
 C         2.016785        -0.271424        -1.328147
 C         3.251765         0.525817        -0.637950
 C         3.804264        -0.364117         0.532488
 C         2.415466        -0.095955         1.103317
 O         2.103201        -0.129172         2.552499
 C         2.287347         1.196623         0.308533
 O         1.857249         2.423748         0.781225
 H        -0.521307         0.068635        -0.980279
 H        -0.545702        -1.079700         0.510612
 H        -0.456463         0.774263         0.709229
 H         2.288395        -1.362241        -1.657416
 H         1.634304         0.389434        -2.183761
 H         3.808294         1.106704        -1.400804
 H         4.077043        -1.392059         0.300678
 H         4.560767        -0.042034         1.327942
 H         2.208946        -1.033408         2.801166
 H         2.093009         2.610280         1.688151
