19
Iteration:  2446
 C        -0.148410        -0.302871         0.127790
 C         1.388431        -0.248216         0.110164
 C         2.373519        -1.087214        -0.702893
 C         3.343727         0.076004        -0.486936
 C         3.815913         0.033398         0.970274
 C         2.337463         0.383847         1.307853
 O         2.026899         0.842841         2.627627
 C         2.166482         1.027429        -0.042253
 O         1.690904         2.287235        -0.247094
 H        -0.662023        -0.149887        -0.805085
 H        -0.532705        -1.315424         0.472932
 H        -0.542406         0.446876         0.806330
 H         2.520486        -2.081928        -0.292841
 H         2.004287        -1.020864        -1.734142
 H         4.063833         0.240799        -1.288080
 H         4.379784        -0.845523         1.193490
 H         4.569485         0.940070         1.315424
 H         2.141196         1.826179         2.622448
 H         1.446723         2.255822        -1.204180
