19
Iteration:  1139
 C        -0.105435        -0.344023         0.197447
 C         1.407928        -0.229851         0.056896
 C         2.426362        -1.130043        -0.683415
 C         3.449777         0.121612        -0.496206
 C         3.772041        -0.022884         1.100022
 C         2.336740         0.394562         1.320182
 O         1.641301         0.838529         2.394714
 C         2.233389         1.088863        -0.030136
 O         1.815740         2.386365        -0.274151
 H        -0.623847         0.512306         0.656907
 H        -0.471001        -0.533273        -0.841765
 H        -0.380886        -1.247030         0.841780
 H         2.724785        -2.042299        -0.303033
 H         2.153622        -1.176879        -1.780073
 H         4.262707         0.342537        -1.296312
 H         4.262062        -1.001718         1.515630
 H         4.541351         0.774146         1.350331
 H         1.671304         0.136690         3.050820
 H         2.484077         3.075913        -0.135710
