19
Iteration:  1392
 C         0.049213        -0.403428         0.453162
 C         1.377691        -0.159955        -0.004416
 C         2.400267        -1.122315        -0.711806
 C         3.475473         0.067654        -0.521426
 C         3.715491         0.041380         1.031953
 C         2.305190         0.446161         1.278407
 O         1.647588         0.619705         2.463035
 C         2.209508         1.092972        -0.062712
 O         1.784842         2.450529        -0.364807
 H        -0.392888         0.546133         0.769645
 H        -0.557196        -0.829602        -0.317552
 H         0.066750        -1.004159         1.374078
 H         2.729770        -1.995370        -0.117340
 H         2.156543        -1.311410        -1.758099
 H         4.213812         0.283790        -1.224464
 H         4.184363        -0.892301         1.341172
 H         4.331992         0.883278         1.270276
 H         1.556666         1.600115         2.600089
 H         2.581643         3.011187        -0.505294
