19
Iteration:  2236charge 0 multiplicity 1
 C         0.055433        -0.235080         0.441926
 C         1.528169        -0.205363         0.250035
 C         2.325334        -1.053585        -0.714518
 C         3.410141        -0.058355        -0.532757
 C         3.802406        -0.097744         1.010736
 C         2.415871         0.416140         1.241519
 O         1.740198         0.933717         2.388278
 C         2.269130         1.030168        -0.086898
 O         1.560987         2.296967        -0.317052
 H        -0.116188         0.202023         1.449874
 H        -0.502380         0.277696        -0.358825
 H        -0.183930        -1.378896         0.532349
 H         2.482016        -2.143250        -0.561249
 H         1.968444        -0.887291        -1.762429
 H         4.189095         0.160530        -1.218760
 H         4.193501        -1.084217         1.084598
 H         4.576667         0.762610         1.379573
 H         2.078374         1.840486         2.606788
 H         1.008313         1.976579        -1.041049
