19
Iteration:  4476charge 0 multiplicity 1
 C        -0.136620        -0.104229         0.048457
 C         1.328506         0.095542        -0.040484
 C         2.029815        -0.268454        -1.327709
 C         3.277099         0.547086        -0.688426
 C         3.769528        -0.364014         0.519706
 C         2.382552        -0.081840         1.184271
 O         2.113474        -0.130301         2.524395
 C         2.233470         1.221553         0.324417
 O         1.907074         2.421016         0.783814
 H        -0.538930        -0.103342        -0.951565
 H        -0.473009        -0.974706         0.653719
 H        -0.566049         0.725727         0.664672
 H         2.241031        -1.310196        -1.630291
 H         1.739623         0.333267        -2.164732
 H         3.775707         1.113993        -1.420477
 H         4.083843        -1.423935         0.348162
 H         4.557555        -0.004905         1.270836
 H         2.345284        -1.043201         2.878463
 H         2.098357         2.445320         1.771316
