19
Iteration:  2475charge 0 multiplicity 1
 C        -0.112877        -0.488552         0.330960
 C         1.435397        -0.239683         0.228024
 C         2.341153        -1.040875        -0.734347
 C         3.299520         0.136905        -0.533109
 C         3.792311        -0.008198         1.001978
 C         2.369008         0.399698         1.267054
 O         1.827022         0.802505         2.445401
 C         2.178564         1.098596        -0.108617
 O         1.870159         2.418777        -0.213510
 H        -0.304579        -1.167927        -0.589633
 H        -0.430378        -1.055326         1.230334
 H        -0.595712         0.567773         0.187556
 H         2.449520        -2.092122        -0.350020
 H         1.795362        -1.073561        -1.703356
 H         4.078043         0.269074        -1.359019
 H         4.109718        -1.119113         1.118657
 H         4.496864         0.715129         1.241466
 H         2.351106         1.576444         2.770868
 H         1.456848         2.519784        -1.102341
