19
Iteration:  1382charge 0 multiplicity 1
 C        -0.026747        -0.416910         0.398907
 C         1.439451        -0.235833        -0.032472
 C         2.382268        -1.100459        -0.725508
 C         3.444413         0.060755        -0.494715
 C         3.756499         0.093256         1.063693
 C         2.315929         0.464802         1.223216
 O         1.729971         0.654260         2.515976
 C         2.155864         1.098177        -0.117646
 O         1.809821         2.458193        -0.275931
 H        -0.526785         0.565823         0.627823
 H        -0.645003        -0.920779        -0.337802
 H        -0.113494        -1.020069         1.325026
 H         2.719706        -2.053463        -0.284976
 H         2.113904        -1.340055        -1.766856
 H         4.293392         0.189920        -1.105182
 H         3.896984        -0.911001         1.497348
 H         4.508138         0.838452         1.467773
 H         1.298643         1.562031         2.542642
 H         2.398184         2.694912        -1.024553
