19
Iteration:  3397
 C        -0.085343        -0.492503         0.189961
 C         1.309313        -0.123296         0.167554
 C         2.200526        -0.783669        -0.973055
 C         3.226379         0.299154        -0.616745
 C         3.742298        -0.156832         0.801072
 C         2.398199         0.278116         1.324857
 O         2.163022         0.520990         2.686247
 C         2.083573         1.172087         0.060504
 O         1.931336         2.452152        -0.015806
 H        -0.170086        -1.244866        -0.540503
 H        -0.654136        -0.628913         1.188529
 H        -0.778314         0.293706        -0.278562
 H         2.502837        -1.866957        -1.070967
 H         1.603690        -0.659838        -1.912973
 H         3.948721         0.884339        -1.165089
 H         4.005239        -1.197052         0.796867
 H         4.569525         0.549260         1.248916
 H         1.368612         0.144820         3.063783
 H         1.807791         2.810615        -0.914988
