19
Iteration:  3602charge 0 multiplicity 1
 C        -0.004864        -0.381272         0.478400
 C         1.336376        -0.166112         0.117716
 C         2.173402        -0.679596        -1.134827
 C         3.323437         0.335711        -0.583210
 C         3.861816        -0.210115         0.805590
 C         2.439761         0.247271         1.213594
 O         1.847856         0.359990         2.451929
 C         2.169322         1.152249         0.032427
 O         1.909857         2.522216         0.188332
 H        -0.734677         0.057003        -0.283758
 H        -0.186152        -1.401989         0.773868
 H        -0.319641         0.338486         1.375781
 H         2.430044        -1.758147        -1.236753
 H         1.870131        -0.274788        -2.120434
 H         4.066977         0.838266        -1.199488
 H         4.001478        -1.377477         0.786005
 H         4.730694         0.286947         1.142920
 H         1.157384        -0.303835         2.564594
 H         1.475288         2.871975        -0.617234
