19
Iteration:  2058charge 0 multiplicity 1
 C        -0.119710        -0.533691         0.240701
 C         1.351490        -0.263327         0.241172
 C         2.260345        -1.088846        -0.597216
 C         3.345787        -0.005900        -0.560033
 C         3.830411        -0.001877         0.889034
 C         2.392147         0.458720         1.284414
 O         1.981186         1.080545         2.460917
 C         2.205664         0.997287        -0.164107
 O         1.789653         2.337306        -0.123801
 H        -0.599871         0.173685         0.964734
 H        -0.629146        -0.506951        -0.758298
 H        -0.257902        -1.558235         0.709102
 H         2.590663        -2.112184        -0.319176
 H         1.748729        -1.215705        -1.570851
 H         4.098931         0.267955        -1.381665
 H         4.268758        -0.892036         1.208301
 H         4.586443         0.873715         0.943252
 H         1.610171         1.980803         2.298293
 H         1.261019         2.530410        -0.913632
