19
Iteration:  2987charge 0 multiplicity 1
 C        -0.108928        -0.523019         0.194709
 C         1.341971        -0.175361         0.178901
 C         2.158746        -0.884247        -0.893629
 C         3.250787         0.146524        -0.621472
 C         3.809594        -0.099397         0.818128
 C         2.441689         0.292722         1.261959
 O         1.963187         0.766477         2.509471
 C         2.196248         1.064211         0.053473
 O         1.909008         2.432349         0.044871
 H        -0.256742        -1.594132        -0.065822
 H        -0.599057        -0.321692         1.101027
 H        -0.686743         0.008986        -0.612243
 H         2.505568        -1.813116        -0.532443
 H         1.822512        -0.710979        -1.897856
 H         3.957850         0.502676        -1.348572
 H         4.449608        -0.997110         1.058104
 H         4.584075         0.716374         1.177124
 H         2.420915         1.633048         2.624376
 H         0.968505         2.507002         0.302333
