19
Iteration:  2201charge 0 multiplicity 1
 C        -0.140710        -0.281334         0.435657
 C         1.339256        -0.219656         0.244647
 C         2.378914        -1.037034        -0.661295
 C         3.361646         0.130782        -0.498012
 C         3.822927         0.024449         0.952472
 C         2.375931         0.457506         1.362648
 O         1.890088         0.679608         2.585148
 C         2.159185         1.028107        -0.122597
 O         1.820238         2.292737        -0.609372
 H        -0.428134         0.594485         1.018010
 H        -0.741132        -0.265396        -0.480843
 H        -0.489884        -1.191798         1.048819
 H         2.761589        -2.036350        -0.382918
 H         2.046025        -1.088302        -1.693897
 H         3.985866         0.405980        -1.339546
 H         4.315915        -0.883229         1.063033
 H         4.470405         0.905760         1.464183
 H         2.177778         1.510766         3.018533
 H         1.170308         2.221134        -1.322419
