19
Iteration:  2658
 C        -0.084828        -0.235660         0.467605
 C         1.423780        -0.177737         0.179542
 C         2.418805        -0.890768        -0.854282
 C         3.444538         0.127117        -0.560936
 C         3.810708        -0.138464         0.946935
 C         2.381970         0.376495         1.292636
 O         1.773412         0.577157         2.544191
 C         2.213452         1.103194        -0.050080
 O         1.693147         2.322505        -0.292026
 H        -0.652256         0.448832        -0.204352
 H        -0.498511        -1.209973         0.309859
 H        -0.184829         0.149852         1.451566
 H         2.683690        -1.927545        -0.723052
 H         2.021833        -0.666614        -1.863115
 H         4.212507         0.436378        -1.301480
 H         4.056392        -1.223855         1.219662
 H         4.692333         0.616433         1.225568
 H         1.684168         1.559050         2.596880
 H         1.413654         2.413075        -1.225125
