19
Iteration:  1474
 C        -0.138797        -0.550282         0.221708
 C         1.374025        -0.191950         0.185271
 C         2.351063        -0.928022        -0.716154
 C         3.413224         0.137812        -0.372172
 C         3.708419        -0.066429         1.109326
 C         2.311264         0.482171         1.310806
 O         1.959917         0.852559         2.569417
 C         2.242436         1.136707        -0.055489
 O         1.675921         2.329777        -0.561144
 H        -0.608536        -0.090999         1.146610
 H        -0.643990        -0.110316        -0.709226
 H        -0.270149        -1.682017         0.256482
 H         2.763365        -1.928193        -0.478054
 H         2.122257        -0.965560        -1.802287
 H         4.329660         0.343803        -1.010009
 H         3.853227        -1.179743         1.414009
 H         4.631903         0.624008         1.470769
 H         2.331069         0.160568         3.112549
 H         2.365521         2.655038        -1.163586
