19
Iteration:  4403
 C        -0.087225        -0.092435         0.384977
 C         1.354707         0.093047        -0.004961
 C         2.141984        -0.172010        -1.186937
 C         3.279905         0.515785        -0.646626
 C         3.803031        -0.337310         0.555476
 C         2.406438        -0.062737         1.187762
 O         2.035218        -0.454982         2.479294
 C         2.284571         1.258422         0.371809
 O         1.804448         2.561824         0.371012
 H        -0.545544         0.833465         0.812113
 H        -0.712084        -0.245279        -0.530746
 H        -0.297196        -0.976024         1.021733
 H         2.199119        -1.232518        -1.564231
 H         1.771282         0.514674        -2.018985
 H         4.069508         0.917369        -1.346887
 H         4.112986        -1.365416         0.238903
 H         4.638283         0.051806         1.068520
 H         1.135026        -0.806061         2.269996
 H         2.199608         3.112460         1.096773
