19
Iteration:  4348
 C        -0.203016        -0.214374         0.259000
 C         1.283049         0.139376        -0.005350
 C         2.131382        -0.309891        -1.234000
 C         3.300160         0.582661        -0.663852
 C         3.773987        -0.318228         0.548683
 C         2.374775        -0.034587         1.182788
 O         2.108943        -0.359127         2.543593
 C         2.230017         1.215688         0.339842
 O         1.933582         2.588989         0.489435
 H        -0.398867        -0.795706         1.180292
 H        -0.794529         0.712874         0.242018
 H        -0.533400        -0.877039        -0.566681
 H         2.372484        -1.424235        -1.283348
 H         1.579802         0.094302        -2.128801
 H         4.106618         1.138333        -1.156283
 H         4.128658        -1.336065         0.203716
 H         4.488160         0.146591         1.168821
 H         1.162829        -0.201646         2.576938
 H         2.731286         3.087793         0.703074
