19
Iteration:  4766charge 0 multiplicity 1
 C        -0.147816        -0.438344         0.043950
 C         1.214406         0.151575        -0.099161
 C         1.948379         0.026398        -1.316239
 C         3.185220         0.600774        -0.682986
 C         3.694306        -0.387064         0.485289
 C         2.354595        -0.032499         1.173314
 O         2.017200        -0.410086         2.470790
 C         2.233300         1.299933         0.442276
 O         2.298378         2.608876         0.878294
 H        -0.102579        -1.503056        -0.293573
 H        -0.467220        -0.506355         1.073928
 H        -0.880003         0.175066        -0.515276
 H         2.188704        -0.909877        -1.853362
 H         1.894298         0.589903        -2.239354
 H         3.868685         1.195009        -1.232325
 H         4.008302        -1.443786         0.285325
 H         4.525697         0.073113         1.065555
 H         1.492586        -1.198851         2.501414
 H         2.841644         2.659163         1.666630
