19
Iteration:  4103charge 0 multiplicity 1
 C        -0.251610        -0.202779         0.097770
 C         1.328725        -0.073916         0.000328
 C         2.160044        -0.553058        -1.181992
 C         3.278487         0.421622        -0.611818
 C         3.796672        -0.270256         0.659072
 C         2.389041         0.017583         1.133238
 O         2.242417         0.032586         2.565260
 C         2.176858         1.230140         0.218146
 O         1.831035         2.609620         0.531782
 H        -0.556176        -1.103899         0.640326
 H        -0.587916         0.636615         0.725268
 H        -0.749846        -0.094294        -0.899584
 H         2.236479        -1.692228        -1.255792
 H         1.744088        -0.201555        -2.159832
 H         4.140021         0.751325        -1.310670
 H         4.245478        -1.241297         0.401494
 H         4.635200         0.393887         1.102915
 H         1.268873        -0.176032         2.537970
 H         2.120551         2.581902         1.480511
