19
Iteration:  2185charge 0 multiplicity 1
 C        -0.154326        -0.347641         0.474082
 C         1.377064        -0.214727         0.208486
 C         2.336806        -1.041343        -0.630374
 C         3.318932         0.208658        -0.518609
 C         3.741921         0.087628         0.979506
 C         2.307357         0.359032         1.243391
 O         1.953574         0.597673         2.701500
 C         2.087878         1.123257        -0.077720
 O         1.934012         2.351042        -0.717831
 H        -0.540797         0.647648         0.762495
 H        -0.552271        -0.679031        -0.496857
 H        -0.295371        -1.092502         1.203372
 H         2.646550        -1.912022        -0.036763
 H         1.940243        -1.288337        -1.639899
 H         4.139081         0.554546        -1.197283
 H         4.200593        -0.851107         1.553371
 H         4.511477         0.758968         1.155071
 H         2.483666         1.397201         2.784887
 H         1.276433         2.154281        -1.406569
