19
Iteration:  4615charge 0 multiplicity 1
 C        -0.169868        -0.026221         0.145109
 C         1.316845         0.130437         0.020415
 C         2.068894        -0.162230        -1.312992
 C         3.284691         0.543461        -0.632611
 C         3.719308        -0.379980         0.503556
 C         2.439860        -0.107734         1.156891
 O         2.187952        -0.473742         2.447422
 C         2.251271         1.228117         0.400182
 O         1.850570         2.527936         0.736804
 H        -0.512809         0.328317         1.123455
 H        -0.579450         0.624067        -0.620286
 H        -0.520886        -0.999774        -0.162179
 H         2.206660        -1.024744        -1.905701
 H         1.679626         0.657106        -1.912911
 H         3.870027         1.152498        -1.251173
 H         3.926031        -1.414754         0.415237
 H         4.529604         0.086929         1.121491
 H         1.376565        -0.963040         2.458866
 H         2.685160         2.918478         1.019369
