19
Iteration:  2165charge 0 multiplicity 1
 C        -0.078345        -0.473762         0.498716
 C         1.413055        -0.106695         0.203128
 C         2.240620        -1.050835        -0.643193
 C         3.304066         0.126732        -0.486204
 C         3.700365         0.054808         0.964373
 C         2.312352         0.572549         1.309786
 O         1.920683         0.551761         2.658307
 C         2.188086         1.140665        -0.154781
 O         1.930022         2.377330        -0.700954
 H        -0.675860         0.453308         0.587147
 H        -0.492326        -1.094310        -0.318468
 H        -0.111543        -1.005283         1.413522
 H         2.582600        -2.026756        -0.283120
 H         1.832061        -1.034547        -1.652860
 H         4.017116         0.158260        -1.381573
 H         4.270884        -0.856065         1.497657
 H         4.366172         0.883777         1.259164
 H         2.405304         1.059108         3.344780
 H         1.431238         2.407926        -1.522337
