19
Iteration:   502
 C        -0.056069        -0.589803         0.474719
 C         1.381925        -0.234152         0.124418
 C         2.383855        -0.869381        -0.884075
 C         3.405755         0.176251        -0.369732
 C         3.562693        -0.137022         1.055657
 C         2.163447         0.280573         1.230979
 O         1.596877         0.865047         2.375259
 C         2.239198         1.092385        -0.068582
 O         2.221773         2.443843        -0.355683
 H        -0.596708         0.085236         1.141888
 H        -0.643053        -0.626157        -0.457936
 H        -0.197767        -1.629293         0.739832
 H         2.636647        -1.970243        -0.795452
 H         1.997289        -0.686095        -1.938602
 H         4.275399         0.348236        -1.064736
 H         3.940399        -1.169015         1.327105
 H         4.277290         0.557664         1.459976
 H         2.329574         1.531391         2.599941
 H         2.108190         2.964612         0.474707
