19
Iteration:  3457charge 0 multiplicity 1
 C         0.057175        -0.361783         0.568344
 C         1.412533        -0.071674         0.021593
 C         2.213318        -0.769151        -1.038277
 C         3.265987         0.327926        -0.610178
 C         3.761832        -0.165504         0.830967
 C         2.374668         0.316418         1.205456
 O         1.829683         0.299653         2.535952
 C         2.260756         1.159881         0.115437
 O         1.905129         2.494006        -0.106715
 H        -0.097725        -1.184564         1.343922
 H        -0.176204         0.485328         1.215230
 H        -0.670414        -0.294342        -0.201779
 H         2.620751        -1.764033        -0.890009
 H         1.892702        -0.560974        -2.059634
 H         4.040271         0.838690        -1.225424
 H         4.125727        -1.243645         0.967282
 H         4.527938         0.467230         1.249787
 H         1.049762        -0.295172         2.523619
 H         0.981972         2.589337        -0.337913
