19
Iteration:   696
 C        -0.140033        -0.436132         0.345367
 C         1.423235        -0.202516         0.165496
 C         2.326021        -1.033799        -0.731711
 C         3.381670         0.129866        -0.472019
 C         3.809693         0.074008         1.070017
 C         2.322097         0.405758         1.250852
 O         1.667390         0.858865         2.375018
 C         2.210792         1.008277        -0.134791
 O         2.094178         2.347392        -0.281040
 H        -0.585272        -0.336727         1.352700
 H        -0.687795         0.073872        -0.451304
 H        -0.269189        -1.534807         0.279168
 H         2.453597        -2.135019        -0.403635
 H         1.921337        -1.079892        -1.808981
 H         4.028476         0.269605        -1.395016
 H         4.248776        -0.842224         1.433546
 H         4.463788         0.908579         1.295605
 H         0.834108         0.381902         2.330263
 H         1.614671         2.629868         0.509545
