19
Iteration:  4098
 C        -0.238347        -0.208281         0.083294
 C         1.320718        -0.093020         0.012076
 C         2.138515        -0.575279        -1.137462
 C         3.305699         0.459324        -0.655168
 C         3.783510        -0.238732         0.653937
 C         2.396924         0.014064         1.096975
 O         2.237236         0.036485         2.563838
 C         2.196196         1.267553         0.231509
 O         1.847839         2.561289         0.527336
 H        -0.555166        -1.215053         0.449242
 H        -0.575515         0.577230         0.790576
 H        -0.716040         0.067529        -0.850224
 H         2.152945        -1.646036        -1.271351
 H         1.710839        -0.142619        -2.039136
 H         4.051375         0.750360        -1.320602
 H         4.109523        -1.282488         0.483832
 H         4.493647         0.288627         1.274001
 H         1.295125        -0.111810         2.719624
 H         2.047651         2.603180         1.472305
