19
Iteration:  2691charge 0 multiplicity 1
 C        -0.025360        -0.556352         0.514886
 C         1.346732        -0.097245         0.096214
 C         2.290607        -0.859510        -0.933981
 C         3.319342         0.193647        -0.531877
 C         3.704394        -0.100524         1.097782
 C         2.334510         0.348222         1.260712
 O         1.837722         0.539791         2.569808
 C         2.180671         1.166905        -0.040623
 O         2.015998         2.479553        -0.444405
 H        -0.756909        -0.855152        -0.258711
 H         0.017353        -1.307869         1.259172
 H        -0.543064         0.170336         1.076228
 H         2.536877        -1.899766        -0.808135
 H         1.855063        -0.794469        -1.947214
 H         4.062752         0.618041        -1.246673
 H         3.887058        -1.109122         1.513522
 H         4.538180         0.649576         1.450522
 H         1.971617         1.453952         2.844153
 H         1.166429         2.592971        -0.881123
