19
Iteration:  3850charge 0 multiplicity 1
 C        -0.104441        -0.314696         0.364535
 C         1.331735        -0.108087         0.098893
 C         2.203425        -0.512819        -1.154786
 C         3.282499         0.428785        -0.667327
 C         3.795049        -0.316147         0.602149
 C         2.345303         0.042426         1.212167
 O         1.923260         0.139988         2.598502
 C         2.206460         1.209606         0.208019
 O         1.997552         2.638064         0.154113
 H        -0.382674        -1.237224        -0.156873
 H        -0.327363        -0.354002         1.454435
 H        -0.786282         0.412335        -0.020955
 H         2.521274        -1.544788        -1.212782
 H         1.762357        -0.231800        -2.103674
 H         3.985362         0.862083        -1.333072
 H         4.161777        -1.302121         0.683873
 H         4.465093         0.394600         1.148692
 H         1.903153        -0.589518         3.213922
 H         1.450464         2.959949         0.898674
