19
Iteration:  3015charge 0 multiplicity 1
 C        -0.112466        -0.418221         0.310102
 C         1.353311        -0.220049         0.186462
 C         2.275009        -0.875408        -0.863493
 C         3.312553         0.202503        -0.601497
 C         3.789413        -0.126327         0.787829
 C         2.410588         0.269086         1.224849
 O         1.963878         0.608033         2.590498
 C         2.155252         1.085928        -0.062322
 O         1.814452         2.493492         0.023020
 H        -0.315522        -1.325224         0.923979
 H        -0.466072         0.484811         0.973799
 H        -0.544560        -0.537180        -0.737311
 H         2.658574        -1.940737        -0.668559
 H         1.847438        -0.744391        -1.915294
 H         4.100385         0.583182        -1.276965
 H         4.271874        -1.141740         0.802877
 H         4.482946         0.535988         1.181489
 H         2.034984         1.573504         2.537164
 H         1.471583         2.842449        -0.833663
