19
Iteration:  2698
 C        -0.095296        -0.603158         0.551244
 C         1.365331        -0.128324         0.127605
 C         2.267803        -0.823896        -0.866535
 C         3.338203         0.218180        -0.523294
 C         3.701103        -0.125928         1.001509
 C         2.325671         0.389291         1.255965
 O         1.817354         0.539411         2.553659
 C         2.181957         1.129058        -0.048560
 O         2.064846         2.519480        -0.454661
 H        -0.486127        -1.049772        -0.400504
 H         0.139047        -1.444740         1.328619
 H        -0.755613         0.239664         0.922991
 H         2.544499        -1.908816        -0.713117
 H         2.018652        -0.605231        -1.918304
 H         4.118721         0.523235        -1.198483
 H         3.940232        -1.059074         1.439353
 H         4.355151         0.610745         1.451895
 H         2.042880         1.421735         2.858239
 H         1.153798         2.638700        -0.764736
