19
Iteration:  3789charge 0 multiplicity 1
 C        -0.170584        -0.376286         0.400841
 C         1.381546        -0.066743         0.082413
 C         2.187418        -0.553137        -1.169314
 C         3.319797         0.410816        -0.654087
 C         3.781791        -0.272460         0.683030
 C         2.363002         0.112630         1.283133
 O         1.916655         0.094850         2.609478
 C         2.276768         1.262897         0.178902
 O         2.026150         2.659486         0.118268
 H        -1.041654         0.096527        -0.101631
 H        -0.233323        -1.368015         0.033515
 H        -0.248611        -0.262091         1.542464
 H         2.423254        -1.664913        -1.233255
 H         1.500710        -0.236540        -1.987566
 H         3.836829         1.024156        -1.412424
 H         4.166580        -1.311496         0.929284
 H         4.404085         0.430948         1.157071
 H         1.441035        -0.727384         2.781930
 H         1.205345         2.708435        -0.425767
