19
Iteration:   423
 C        -0.086989        -0.128316         0.162479
 C         1.393295        -0.275567         0.145638
 C         2.431035        -1.024858        -0.727218
 C         3.467129         0.057781        -0.356945
 C         3.649077        -0.062065         1.053646
 C         2.251626         0.390046         1.286791
 O         1.875741         0.652675         2.577529
 C         2.293987         1.099568         0.019373
 O         1.799277         2.339761        -0.437974
 H        -0.416760         0.534294         0.955255
 H        -0.515096         0.375894        -0.715374
 H        -0.689599        -1.029026         0.284148
 H         2.673607        -2.070435        -0.400769
 H         2.197451        -0.909420        -1.866997
 H         4.319940         0.208451        -0.932586
 H         4.099576        -0.991443         1.454767
 H         4.060651         0.881012         1.406537
 H         0.922210         1.015573         2.574691
 H         1.961653         2.390134        -1.420246
