19
Iteration:  1230
 C        -0.057624        -0.466560         0.350008
 C         1.441697        -0.165678         0.039313
 C         2.326689        -0.985498        -0.744472
 C         3.441876         0.183993        -0.420469
 C         3.777289         0.042973         1.129507
 C         2.233059         0.333688         1.340323
 O         1.641730         0.639233         2.495178
 C         2.209503         1.084191        -0.010984
 O         2.030459         2.395740        -0.548118
 H        -0.302428        -0.236753         1.409165
 H        -0.730527         0.061971        -0.318892
 H        -0.277591        -1.531967         0.243815
 H         2.478973        -1.910653        -0.365260
 H         2.056383        -1.061855        -1.802519
 H         4.168056         0.363877        -1.191855
 H         4.239325        -0.840890         1.565658
 H         4.415236         0.959399         1.334830
 H         1.765896         1.635347         2.550398
 H         1.163043         2.642623        -0.215575
