19
Iteration:  3547
 C        -0.204203        -0.319085         0.076192
 C         1.246414        -0.196140         0.102475
 C         2.244700        -0.787977        -0.923877
 C         3.284777         0.326720        -0.646047
 C         3.792137        -0.162862         0.773405
 C         2.426474         0.286540         1.258832
 O         2.115059         0.417864         2.557726
 C         2.145712         1.136509         0.190916
 O         1.850782         2.487401         0.201698
 H        -0.549131         0.740045         0.195873
 H        -0.614146        -0.426520        -0.880148
 H        -0.623888        -1.070970         0.837218
 H         2.674714        -1.791742        -0.952415
 H         1.746987        -0.644820        -1.891684
 H         4.104598         0.562337        -1.352665
 H         4.105454        -1.309307         0.861005
 H         4.576016         0.425170         1.129666
 H         2.710501        -0.046608         3.141467
 H         1.385113         2.644808        -0.628994
