19
Iteration:  1778
 C        -0.093594        -0.559244         0.447094
 C         1.347026        -0.183097         0.266477
 C         2.230349        -0.927918        -0.719252
 C         3.303120         0.060730        -0.499170
 C         3.773940         0.006674         1.070984
 C         2.353134         0.466082         1.244530
 O         1.921885         0.764693         2.533048
 C         2.191555         1.150998        -0.110696
 O         1.926356         2.384748        -0.606275
 H        -0.494161        -0.251915         1.420490
 H        -0.728554        -0.276765        -0.399370
 H        -0.271689        -1.626681         0.556231
 H         2.465330        -1.868578        -0.215725
 H         1.951643        -1.211759        -1.744051
 H         4.158887         0.186426        -1.254673
 H         4.272922        -0.930615         1.503296
 H         4.293729         0.862597         1.356469
 H         2.704699         1.046784         3.023250
 H         1.010107         2.488141        -0.913636
