19
Iteration:  3607
 C        -0.017711        -0.380601         0.529702
 C         1.395420        -0.120479         0.050902
 C         2.145836        -0.699320        -1.123495
 C         3.331953         0.393555        -0.553479
 C         3.863142        -0.259589         0.804968
 C         2.414642         0.225917         1.219901
 O         1.837287         0.354831         2.464934
 C         2.195912         1.150048         0.025356
 O         1.901440         2.527353         0.166861
 H        -0.677491        -0.184006        -0.289865
 H        -0.130999        -1.421189         0.942456
 H        -0.351556         0.341385         1.180703
 H         2.410761        -1.738471        -1.323011
 H         1.672259        -0.239092        -2.002688
 H         4.056898         0.869630        -1.227166
 H         4.024098        -1.279880         0.683726
 H         4.806291         0.263508         1.242434
 H         1.117068        -0.310314         2.485858
 H         1.508743         2.839444        -0.660505
