19
Iteration:  3811charge 0 multiplicity 1
 C        -0.053217        -0.411774         0.378858
 C         1.261575         0.071522        -0.017783
 C         2.107275        -0.481116        -1.063005
 C         3.261454         0.337735        -0.581027
 C         3.743006        -0.182428         0.792499
 C         2.407009         0.169775         1.273917
 O         1.993766         0.017865         2.549981
 C         2.097238         1.229939         0.142932
 O         2.123976         2.589554         0.099550
 H        -0.531075        -0.439342        -0.650995
 H        -0.055403        -1.447158         0.652949
 H        -0.691884         0.233967         1.105504
 H         2.278880        -1.594889        -0.887152
 H         1.693430        -0.263092        -2.093078
 H         3.877111         0.797584        -1.396655
 H         4.153604        -1.263604         0.662276
 H         4.501089         0.458527         1.161989
 H         1.969712        -0.979058         2.591633
 H         1.240243         2.945648        -0.068795
