19
Iteration:   921
 C        -0.084370        -0.465836         0.209270
 C         1.426209        -0.234933         0.127006
 C         2.361363        -1.001785        -0.830241
 C         3.410552         0.077862        -0.396966
 C         3.671297        -0.154797         1.135333
 C         2.337370         0.496254         1.268326
 O         1.783456         0.872453         2.452384
 C         2.203394         1.106289        -0.063006
 O         1.831789         2.356723        -0.346779
 H        -0.466563        -0.079404         1.129896
 H        -0.569026         0.060013        -0.602735
 H        -0.395743        -1.508686         0.110930
 H         2.626035        -2.088521        -0.649540
 H         2.096282        -0.853769        -1.928563
 H         4.237451         0.238969        -1.109225
 H         3.684066        -1.081664         1.655256
 H         4.428958         0.505388         1.561262
 H         2.508871         1.244665         3.031601
 H         2.286078         2.992987         0.276681
