19
Iteration:  3153
 C        -0.058702        -0.383947         0.311481
 C         1.345691        -0.218450         0.120701
 C         2.190917        -0.853199        -0.910363
 C         3.299217         0.210890        -0.639759
 C         3.773078        -0.145190         0.748957
 C         2.450889         0.347674         1.275604
 O         1.917293         0.604125         2.525725
 C         2.212460         1.113514         0.020345
 O         1.847138         2.430862         0.014966
 H        -0.585274         0.574929         0.259081
 H        -0.615999        -0.927850        -0.350228
 H        -0.443554        -0.727592         1.290396
 H         2.637825        -1.844423        -0.760525
 H         1.698501        -0.751650        -1.886348
 H         4.099405         0.439915        -1.375350
 H         4.262687        -1.129605         0.904563
 H         4.687104         0.485485         0.967819
 H         2.614133         0.840564         3.190100
 H         1.051270         2.594628         0.558986
