19
Iteration:  1359
 C        -0.122399        -0.471621         0.268371
 C         1.388762        -0.241426         0.164450
 C         2.396358        -0.967516        -0.722161
 C         3.423400         0.140977        -0.467287
 C         3.715350        -0.005339         1.049057
 C         2.287171         0.356243         1.282095
 O         1.857350         0.810883         2.502500
 C         2.212184         1.049200        -0.048541
 O         1.930835         2.393429        -0.346852
 H        -0.714326         0.464282         0.306905
 H        -0.475384        -1.006899        -0.601804
 H        -0.471201        -1.093356         1.122762
 H         2.884714        -1.974909        -0.641360
 H         2.065346        -0.958031        -1.774752
 H         4.211718         0.447104        -1.070134
 H         4.153437        -0.961897         1.341133
 H         4.306849         0.855631         1.435121
 H         1.021989         1.253368         2.395980
 H         1.005897         2.352934        -0.741381
