19
Iteration:  4648charge 0 multiplicity 1
 C        -0.190640         0.208581         0.074317
 C         1.307671         0.117839         0.025547
 C         2.141788        -0.214437        -1.319275
 C         3.243814         0.649871        -0.652122
 C         3.789458        -0.353084         0.386494
 C         2.470100        -0.224238         1.240696
 O         2.189312        -0.521274         2.589451
 C         2.202269         1.134392         0.429730
 O         1.756724         2.481535         0.694932
 H        -0.450440         1.228307         0.360918
 H        -0.451143         0.198310        -0.968065
 H        -0.707689        -0.458661         0.755002
 H         2.375457        -1.118756        -1.771756
 H         1.719491         0.340590        -2.167201
 H         3.928622         1.272298        -1.190283
 H         4.053930        -1.321930         0.052483
 H         4.677484         0.114375         0.903289
 H         1.922385        -1.463646         2.647636
 H         2.423489         2.956143         1.208286
