19
Iteration:    96
 C        -0.017868        -0.504769         0.452111
 C         1.411974        -0.120492         0.192189
 C         2.306057        -0.957289        -0.889481
 C         3.359417         0.068161        -0.488649
 C         3.725017        -0.240579         1.076761
 C         2.302385         0.413755         1.269855
 O         1.622712         0.934347         2.363800
 C         2.241348         1.063557        -0.079755
 O         2.059933         2.472253        -0.228935
 H        -0.714445         0.232485         0.866936
 H        -0.319665        -0.623577        -0.601786
 H        -0.084026        -1.480407         1.004679
 H         2.494521        -1.988621        -0.531635
 H         1.897810        -0.894032        -1.865902
 H         4.235963         0.361944        -1.101466
 H         3.988288        -1.325729         1.240055
 H         4.451492         0.520460         1.366512
 H         1.011270         0.340520         2.795264
 H         2.375368         2.670697        -1.154277
