19
Iteration:  1655charge 0 multiplicity 1
 C        -0.079919        -0.413654         0.515201
 C         1.406116        -0.215589         0.194159
 C         2.382282        -1.037584        -0.666251
 C         3.427912         0.104024        -0.552739
 C         3.815987         0.005111         0.941712
 C         2.365133         0.484264         1.263241
 O         1.769529         0.803255         2.419304
 C         2.178158         1.087009        -0.067181
 O         1.792214         2.381802        -0.393977
 H        -0.683713         0.535207         0.521517
 H        -0.643753        -1.103414        -0.103849
 H        -0.155736        -0.948854         1.485440
 H         2.657279        -2.047907        -0.291673
 H         1.983190        -1.070419        -1.706285
 H         3.995357         0.443801        -1.486955
 H         4.163433        -1.068448         1.372537
 H         4.476462         0.738419         1.336411
 H         1.415454        -0.015506         2.844837
 H         2.053709         2.397079        -1.348219
