19
Iteration:  1098
 C        -0.139721        -0.092375         0.279767
 C         1.404046        -0.194736         0.108186
 C         2.485352        -1.037583        -0.732031
 C         3.462228         0.120028        -0.414280
 C         3.798740         0.099009         1.127894
 C         2.326210         0.317626         1.257962
 O         1.605862         0.559706         2.475349
 C         2.262122         1.047676        -0.083158
 O         1.835037         2.273716        -0.505633
 H        -0.431075         0.927154         0.498529
 H        -0.731923        -0.312946        -0.584510
 H        -0.387815        -0.697393         1.153066
 H         2.641196        -2.079357        -0.225099
 H         2.219012        -1.156913        -1.832296
 H         4.334435         0.504274        -1.132175
 H         4.113405        -0.798468         1.577741
 H         4.403117         0.975982         1.492335
 H         2.294760         0.545750         3.214946
 H         1.493766         2.601405         0.342565
