19
Iteration:   349
 C        -0.068212        -0.256523         0.239171
 C         1.405198        -0.128677         0.072189
 C         2.298416        -1.034992        -0.807901
 C         3.459285         0.149501        -0.360988
 C         3.694755        -0.186791         1.159018
 C         2.330514         0.477170         1.329651
 O         1.778795         0.722472         2.589650
 C         2.264021         1.098273        -0.035113
 O         1.903419         2.326625        -0.605870
 H        -0.590730         0.744423         0.211491
 H        -0.476395        -0.772884        -0.683468
 H        -0.430441        -0.690585         1.214177
 H         2.470129        -2.120925        -0.516525
 H         1.936058        -0.906939        -1.840697
 H         4.266806         0.622084        -0.880808
 H         3.819405        -1.255259         1.460111
 H         4.505978         0.438289         1.474878
 H         1.665679        -0.097876         3.105567
 H         1.513851         2.813972         0.121224
