19
Iteration:    32
 C        -0.097427        -0.670895         0.266066
 C         1.326187        -0.252719         0.160344
 C         2.199362        -0.897016        -0.760264
 C         3.371159         0.108367        -0.462208
 C         3.767821        -0.070968         1.012495
 C         2.259499         0.418655         1.268288
 O         1.732056         0.916603         2.515659
 C         2.218011         1.106271        -0.048677
 O         2.268158         2.408327        -0.334140
 H        -0.637041         0.227802         0.521402
 H        -0.394792        -0.756969        -0.774315
 H        -0.474796        -1.458889         0.884547
 H         2.450646        -1.946056        -0.255288
 H         1.931208        -0.954319        -1.810411
 H         4.023853         0.390175        -1.324138
 H         4.115481        -1.039112         1.338261
 H         4.347182         0.822144         1.209799
 H         0.750699         0.672888         2.489910
 H         1.564056         2.921852         0.153767
