19
Iteration:  3290
 C        -0.125788        -0.282178         0.472262
 C         1.382033        -0.119691         0.121446
 C         2.189444        -0.792754        -1.027583
 C         3.315445         0.282803        -0.624988
 C         3.758302        -0.093286         0.838349
 C         2.371431         0.302780         1.290854
 O         2.031529         0.334208         2.631640
 C         2.167983         1.150693         0.043530
 O         1.918769         2.447150        -0.243861
 H        -0.567613        -0.950786        -0.233766
 H        -0.321612        -0.830499         1.432934
 H        -0.603324         0.659199         0.420229
 H         2.494010        -1.794779        -0.807807
 H         1.843809        -0.580964        -2.042158
 H         4.065625         0.673553        -1.286526
 H         4.149046        -1.099588         1.221504
 H         4.491002         0.705388         1.226863
 H         1.592455        -0.501526         2.840045
 H         1.155776         2.807053         0.227233
