19
Iteration:  3756charge 0 multiplicity 1
 C        -0.022620        -0.195615         0.398694
 C         1.402855        -0.078299        -0.004244
 C         2.199352        -0.591094        -1.172388
 C         3.354228         0.348178        -0.624890
 C         3.756844        -0.322296         0.752648
 C         2.436472         0.198993         1.214007
 O         1.973570         0.302479         2.491676
 C         2.230753         1.132173         0.178892
 O         1.763182         2.444620         0.318404
 H        -0.468765         0.742269         0.742056
 H        -0.567580        -0.728735        -0.326773
 H        -0.176256        -1.094963         1.069474
 H         2.391586        -1.698607        -1.344409
 H         1.666670        -0.191477        -2.069642
 H         3.946601         0.990683        -1.266931
 H         3.933830        -1.438312         0.753381
 H         4.581646         0.177639         1.155864
 H         1.286409        -0.408122         2.589263
 H         1.531430         2.760096        -0.584393
