19
Iteration:  3791charge 0 multiplicity 1
 C        -0.171574        -0.381263         0.394508
 C         1.372136        -0.045566         0.075780
 C         2.171216        -0.567966        -1.165841
 C         3.311448         0.409733        -0.636872
 C         3.783151        -0.262889         0.673095
 C         2.358739         0.118308         1.280010
 O         1.923426         0.081175         2.608022
 C         2.283003         1.264752         0.195607
 O         2.038910         2.659658         0.110337
 H        -1.071160        -0.012303        -0.121349
 H        -0.189740        -1.419451         0.039585
 H        -0.234357        -0.170838         1.482932
 H         2.361478        -1.671605        -1.225871
 H         1.536331        -0.248314        -2.028979
 H         3.874212         1.016356        -1.419242
 H         4.138698        -1.230121         0.933738
 H         4.445322         0.504090         1.211729
 H         1.464433        -0.764808         2.830199
 H         1.195791         2.693719        -0.405588
