19
Iteration:  1415charge 0 multiplicity 1
 C        -0.026600        -0.415512         0.526006
 C         1.397582        -0.198325         0.195248
 C         2.363582        -0.955614        -0.710617
 C         3.444402         0.195533        -0.486554
 C         3.845835         0.003765         1.048736
 C         2.353132         0.384040         1.258270
 O         1.544234         0.640446         2.382577
 C         2.228416         1.077256        -0.107607
 O         1.873497         2.359122        -0.541822
 H        -0.475585         0.479457         1.030117
 H        -0.590922        -0.640858        -0.373531
 H        -0.133238        -1.234458         1.250825
 H         2.810534        -1.910145        -0.406768
 H         1.977030        -0.916868        -1.739733
 H         4.228405         0.349533        -1.221091
 H         4.041587        -1.045559         1.209121
 H         4.633020         0.648558         1.481137
 H         2.092298         1.218158         2.954031
 H         1.645632         2.932247         0.233370
