19
Iteration:  1959
 C        -0.033325        -0.310336         0.679945
 C         1.447293        -0.141017         0.258990
 C         2.388844        -0.957452        -0.730720
 C         3.402997         0.200884        -0.572087
 C         3.796611        -0.077262         0.963071
 C         2.333621         0.384323         1.310744
 O         1.709665         0.646752         2.503009
 C         2.256706         1.105615        -0.127650
 O         1.774447         2.261463        -0.668453
 H         0.057192         0.466842         1.499510
 H        -0.969725        -0.100182         0.195820
 H        -0.097247        -1.206732         1.336944
 H         2.758335        -1.976653        -0.512565
 H         1.831917        -1.144119        -1.651490
 H         4.302588         0.468869        -1.277150
 H         4.031139        -1.059043         1.259205
 H         4.541460         0.808855         1.306629
 H         2.001551         1.578087         2.701860
 H         0.879948         2.140403        -1.043689
