19
Iteration:   245charge 0 multiplicity 1
 C        -0.040656        -0.386041         0.457510
 C         1.355541        -0.166002         0.059375
 C         2.366179        -0.940885        -0.828262
 C         3.442929         0.071221        -0.355600
 C         3.590751        -0.238145         1.074644
 C         2.238674         0.322563         1.197823
 O         1.833670         0.913818         2.335997
 C         2.187826         1.070829        -0.160827
 O         1.984457         2.431956        -0.183342
 H        -0.294924         0.441706         1.108295
 H        -0.787496        -0.485335        -0.290423
 H        -0.012206        -1.302979         1.033717
 H         2.606763        -1.978037        -0.493167
 H         2.107933        -1.101456        -1.964224
 H         4.351620         0.433166        -0.969934
 H         3.889806        -1.212223         1.303425
 H         4.423528         0.394029         1.462020
 H         0.906266         0.710921         2.684671
 H         2.224073         2.746024        -1.085384
