19
Iteration:  3721
 C        -0.089064        -0.144376         0.253978
 C         1.334370        -0.136401         0.028607
 C         2.238917        -0.694806        -1.066216
 C         3.402459         0.244004        -0.691181
 C         3.781881        -0.220412         0.725396
 C         2.416286         0.180431         1.195737
 O         2.036151         0.374632         2.497662
 C         2.156517         1.127658         0.152901
 O         1.744297         2.451194         0.411503
 H        -0.408434        -0.003382         1.287767
 H        -0.517524         0.640518        -0.297312
 H        -0.455045        -1.169536         0.121331
 H         2.476770        -1.789564        -1.215338
 H         1.880077        -0.278698        -2.033158
 H         4.138298         0.792971        -1.229499
 H         4.166900        -1.286421         0.654485
 H         4.500859         0.412897         1.122050
 H         1.819507        -0.539983         2.825175
 H         1.219003         2.701895        -0.380501
