19
Iteration:   535charge 0 multiplicity 1
 C         0.027874        -0.375383         0.386206
 C         1.424122        -0.134645        -0.028694
 C         2.277091        -1.044770        -0.728534
 C         3.428291         0.023191        -0.428505
 C         3.798403        -0.107628         1.010433
 C         2.377411         0.405983         1.229941
 O         1.471034         0.853443         2.343498
 C         2.238935         1.093981        -0.111422
 O         1.997451         2.437669        -0.212704
 H        -0.514679         0.430575         0.902234
 H        -0.455240        -0.634721        -0.559356
 H        -0.039781        -1.175200         1.113351
 H         2.399203        -2.029446        -0.298986
 H         2.095842        -1.059400        -1.839967
 H         4.305578         0.199066        -1.154415
 H         3.905356        -1.203630         1.302590
 H         4.598665         0.513555         1.386708
 H         1.684247         0.174099         2.988542
 H         1.851734         2.783018         0.668511
