19
Iteration:  1039charge 0 multiplicity 1
 C        -0.068451        -0.511340         0.247347
 C         1.407253        -0.082476         0.147999
 C         2.377511        -0.843033        -0.809117
 C         3.415365         0.135357        -0.372166
 C         3.635911        -0.247397         1.049641
 C         2.318226         0.434591         1.336124
 O         1.792518         0.679263         2.643085
 C         2.208415         1.206226         0.064737
 O         1.982498         2.435678        -0.594566
 H        -0.627553         0.162112         0.915283
 H        -0.576219        -0.730972        -0.734873
 H        -0.079495        -1.480261         0.822938
 H         2.501243        -1.869753        -0.575041
 H         1.968475        -0.791265        -1.852401
 H         4.211659         0.382842        -0.986354
 H         3.470229        -1.334697         1.395399
 H         4.470174         0.190398         1.577268
 H         1.337226         1.524754         2.656372
 H         1.600947         1.986198        -1.396979
