19
Iteration:  4133
 C        -0.112021        -0.194053         0.250564
 C         1.405813         0.004924        -0.011878
 C         2.124262        -0.435640        -1.256774
 C         3.330592         0.515817        -0.681139
 C         3.762167        -0.276571         0.630814
 C         2.374139         0.054720         1.238716
 O         2.040676         0.007720         2.590064
 C         2.241996         1.163090         0.221839
 O         1.825839         2.434048         0.445705
 H        -0.319781        -0.392900         1.345691
 H        -0.637309         0.790603         0.180986
 H        -0.614937        -0.971771        -0.301544
 H         2.262987        -1.535334        -1.351928
 H         1.620022         0.028018        -2.117279
 H         4.064934         0.880216        -1.393499
 H         3.955537        -1.271653         0.312484
 H         4.662449         0.224738         1.134257
 H         1.456202        -0.745381         2.429006
 H         2.367529         2.896148         1.074766
