19
Iteration:  1263charge 0 multiplicity 1
 C        -0.084687        -0.269176         0.402874
 C         1.439511        -0.296480         0.147758
 C         2.480922        -1.075658        -0.730217
 C         3.450163         0.170744        -0.473839
 C         3.815054         0.113938         1.034034
 C         2.328155         0.488147         1.281503
 O         1.504694         0.599816         2.442408
 C         2.193663         1.033997        -0.079210
 O         1.930407         2.352781        -0.389238
 H        -0.361975         0.379799         1.261342
 H        -0.548775         0.262845        -0.432696
 H        -0.598118        -1.220941         0.453561
 H         2.817951        -1.969277        -0.417469
 H         1.964125        -1.171581        -1.659548
 H         4.120717         0.406627        -1.231841
 H         4.120255        -0.801700         1.541927
 H         4.564977         0.922342         1.358413
 H         2.121972         0.517280         3.161077
 H         1.556122         2.414055        -1.313889
