19
Iteration:  4063charge 0 multiplicity 1
 C        -0.157199        -0.229432         0.145454
 C         1.343278        -0.091306        -0.023300
 C         2.104722        -0.536449        -1.250921
 C         3.257147         0.466047        -0.649944
 C         3.828749        -0.279084         0.568317
 C         2.473936         0.013583         1.262811
 O         2.095084         0.119336         2.639884
 C         2.187070         1.150759         0.239412
 O         1.864941         2.547912         0.475909
 H        -0.599937        -0.996358        -0.490637
 H        -0.411176        -0.499063         1.169512
 H        -0.710906         0.693735        -0.174200
 H         2.312538        -1.563401        -1.492144
 H         1.716899         0.036796        -2.089074
 H         4.049368         0.925005        -1.303244
 H         4.054933        -1.388123         0.486515
 H         4.539673         0.217118         1.129613
 H         1.159920        -0.052639         2.762684
 H         2.285439         2.980157         1.239020
