19
Iteration:  2619
 C        -0.027047        -0.145405         0.216261
 C         1.444078        -0.253876         0.136208
 C         2.388994        -0.988475        -0.762980
 C         3.354056         0.067587        -0.565816
 C         3.816132        -0.014833         0.900026
 C         2.330318         0.333502         1.308982
 O         1.874936         0.751397         2.567207
 C         2.192423         1.023895        -0.068497
 O         1.668968         2.285812        -0.107636
 H        -0.424203         0.877383         0.377894
 H        -0.517270        -0.565237        -0.715584
 H        -0.521773        -0.911246         0.915598
 H         2.781146        -2.024167        -0.520760
 H         1.901998        -1.076838        -1.741897
 H         4.099225         0.219715        -1.361569
 H         4.285458        -0.960983         1.166526
 H         4.460571         0.761192         1.049571
 H         2.406423         1.462878         2.928232
 H         1.034136         2.319057        -0.838592
