19
Iteration:  4524
 C        -0.167948        -0.310307         0.125022
 C         1.273486         0.079758        -0.108788
 C         2.053114        -0.173774        -1.282118
 C         3.225983         0.618712        -0.654258
 C         3.742768        -0.333291         0.519340
 C         2.397735        -0.121629         1.115313
 O         1.991455        -0.115924         2.435563
 C         2.165642         1.216240         0.356135
 O         2.187713         2.485189         0.819116
 H        -0.243866        -1.277421        -0.384561
 H        -0.309210        -0.350911         1.188849
 H        -0.937267         0.389854        -0.163932
 H         2.297077        -1.182164        -1.474762
 H         1.495586         0.256498        -2.134164
 H         3.998822         1.291638        -1.171307
 H         4.065829        -1.381641         0.317919
 H         4.496972         0.098738         1.111580
 H         1.973606        -1.057129         2.612343
 H         2.214636         2.557070         1.767117
