19
Iteration:  1770
 C        -0.164296        -0.594215         0.392248
 C         1.302478        -0.152305         0.216193
 C         2.245783        -0.970714        -0.678951
 C         3.357759         0.069671        -0.485130
 C         3.800070         0.061441         1.006540
 C         2.395443         0.487330         1.291085
 O         1.940896         0.803136         2.580240
 C         2.158217         1.140168        -0.050357
 O         1.927722         2.358246        -0.623144
 H        -0.574908        -0.189764         1.275409
 H        -0.758143        -0.252425        -0.467509
 H        -0.161456        -1.657845         0.409974
 H         2.399981        -2.024345        -0.370242
 H         1.869085        -0.979850        -1.707235
 H         4.018803        -0.052085        -1.264003
 H         4.072278        -0.972011         1.320058
 H         4.621315         0.846286         1.341802
 H         2.714487         0.796012         3.172403
 H         0.958096         2.390583        -0.760323
