19
Iteration:  3976charge 0 multiplicity 1
 C        -0.148001        -0.238828         0.342886
 C         1.320054        -0.032082         0.060858
 C         2.130725        -0.380582        -1.187345
 C         3.307119         0.484600        -0.628208
 C         3.788107        -0.245040         0.739680
 C         2.404901         0.056644         1.186160
 O         1.999642        -0.057631         2.548712
 C         2.184470         1.223593         0.247085
 O         1.935589         2.485774         0.142190
 H        -0.503798         0.789717         0.392262
 H        -0.726269        -0.833378        -0.371309
 H        -0.311103        -0.705365         1.363760
 H         2.363823        -1.466505        -1.216336
 H         1.698262        -0.079473        -2.146072
 H         4.021675         1.053936        -1.291421
 H         3.986963        -1.349234         0.841317
 H         4.527435         0.293514         1.256114
 H         2.202362        -1.008414         2.586319
 H         2.130685         2.994969         0.975778
