19
Iteration:   891charge 0 multiplicity 1
 C        -0.021904        -0.341600         0.270482
 C         1.434688        -0.049344         0.203806
 C         2.307048        -0.878814        -0.833244
 C         3.465333         0.248197        -0.402107
 C         3.758281        -0.215235         1.077617
 C         2.301117         0.266669         1.427198
 O         1.676735         0.651468         2.679507
 C         2.251834         1.180514        -0.001817
 O         1.789713         2.287378        -0.699701
 H        -0.563965         0.390996         0.883570
 H        -0.451710        -0.228652        -0.739543
 H        -0.140550        -1.416796         0.560366
 H         2.546333        -1.895819        -0.594377
 H         1.959367        -0.760561        -1.785983
 H         4.261719         0.321256        -1.288065
 H         3.941358        -1.265350         1.427419
 H         4.463914         0.423615         1.755151
 H         2.276436         1.302308         3.083604
 H         2.472760         2.552000        -1.311757
