19
Iteration:  4671charge 0 multiplicity 1
 C        -0.159977         0.220074         0.213030
 C         1.331705         0.004374        -0.056488
 C         2.120990        -0.115619        -1.346251
 C         3.337225         0.607796        -0.586776
 C         3.741502        -0.382475         0.455748
 C         2.430649        -0.160387         1.146613
 O         2.146185        -0.437892         2.453275
 C         2.286795         1.135191         0.388224
 O         1.721664         2.442873         0.725617
 H        -0.421877         1.266626         0.030222
 H        -0.823595        -0.351757        -0.453802
 H        -0.262971         0.046699         1.279334
 H         2.389439        -1.095934        -1.689327
 H         1.779247         0.290115        -2.287371
 H         3.985104         1.285477        -1.158963
 H         3.939474        -1.384664         0.165844
 H         4.547970        -0.060618         1.186875
 H         2.164239        -1.429275         2.403185
 H         1.952951         2.589294         1.686672
