19
Iteration:  1942
 C        -0.082281        -0.306190         0.625428
 C         1.403600        -0.254612         0.131413
 C         2.339234        -1.002908        -0.776147
 C         3.381279         0.146014        -0.487634
 C         3.808569         0.007688         0.949841
 C         2.390303         0.454974         1.313375
 O         1.835442         0.726007         2.566190
 C         2.150190         1.037360        -0.043966
 O         1.811334         2.301463        -0.628412
 H        -0.490217         0.589991         1.080100
 H        -0.529999        -0.601344        -0.364226
 H        -0.233600        -1.241915         1.213104
 H         2.674585        -2.007180        -0.450115
 H         2.118487        -1.057715        -1.872162
 H         3.978499         0.390644        -1.303493
 H         4.139511        -1.063448         1.240455
 H         4.474135         0.725057         1.296539
 H         2.183450         1.597915         2.877349
 H         0.845596         2.210230        -0.707022
