19
Iteration:   489
 C        -0.041212        -0.660467         0.299114
 C         1.308427        -0.221799         0.072939
 C         2.281117        -0.843956        -0.846399
 C         3.412844         0.137314        -0.427676
 C         3.640772        -0.144958         1.162127
 C         2.167729         0.371122         1.273532
 O         1.707118         0.854130         2.508580
 C         2.178632         1.069414        -0.089941
 O         2.239838         2.431927        -0.414901
 H        -0.283087        -0.100632         1.173516
 H        -0.715034        -0.466332        -0.521497
 H         0.028563        -1.631105         0.729345
 H         2.435067        -1.881789        -0.810081
 H         2.043598        -0.486996        -1.894616
 H         4.205809         0.491275        -1.045400
 H         3.891136        -1.229756         1.379102
 H         4.250042         0.540523         1.762990
 H         1.891742         1.771110         2.598144
 H         1.921593         2.907642         0.365186
