19
Iteration:   840charge 0 multiplicity 1
 C        -0.075372         0.000289         0.433550
 C         1.417771        -0.123956         0.045443
 C         2.445838        -1.044390        -0.667246
 C         3.400527         0.211063        -0.387962
 C         3.742920         0.140557         1.124750
 C         2.279271         0.299675         1.323374
 O         1.711124         0.200821         2.631765
 C         2.211926         1.145690        -0.153247
 O         1.857176         2.270178        -0.780179
 H        -0.298110         1.104499         0.565881
 H        -0.857669        -0.351739        -0.271483
 H        -0.150432        -0.439846         1.438041
 H         2.495641        -2.054736        -0.147038
 H         2.097916        -1.151106        -1.771000
 H         4.260687         0.367917        -1.028281
 H         4.270666        -0.741713         1.538257
 H         4.319269         1.029149         1.299016
 H         1.534200         1.116808         3.010900
 H         2.352790         2.982707        -0.331305
