19
Iteration:  2227charge 0 multiplicity 1
 C         0.087980        -0.246102         0.444388
 C         1.491182        -0.211102         0.265935
 C         2.251357        -1.085170        -0.768650
 C         3.424995         0.014770        -0.503781
 C         3.785393        -0.077333         0.986507
 C         2.421025         0.472267         1.318459
 O         1.765894         0.846696         2.422517
 C         2.267550         1.061392        -0.101055
 O         1.609016         2.259176        -0.388619
 H        -0.204372         0.413764         1.310303
 H        -0.437954         0.179112        -0.456983
 H        -0.323287        -1.281279         0.590416
 H         2.538416        -2.104585        -0.439391
 H         1.694466        -1.079265        -1.757768
 H         4.281288         0.202731        -1.162400
 H         4.436057        -0.941627         1.401158
 H         4.492007         0.835780         1.171178
 H         1.994035         1.734746         2.780311
 H         0.970528         2.168721        -1.111882
