19
Iteration:  4794charge 0 multiplicity 1
 C        -0.194778        -0.255735         0.100418
 C         1.285599         0.075234        -0.027340
 C         1.993959        -0.022173        -1.358439
 C         3.228495         0.704939        -0.615816
 C         3.722282        -0.423450         0.406803
 C         2.367917        -0.134375         1.137422
 O         2.028816        -0.366857         2.431084
 C         2.262354         1.237831         0.464513
 O         2.219166         2.552776         0.858761
 H        -0.254038        -1.261996         0.566622
 H        -0.824604         0.342596         0.833592
 H        -0.607943        -0.312701        -0.919480
 H         2.448562        -0.967608        -1.806764
 H         1.587027         0.638861        -2.228984
 H         4.009485         1.396463        -1.036501
 H         3.887355        -1.431487        -0.038848
 H         4.510443        -0.066614         1.072941
 H         1.804788        -1.283529         2.555939
 H         1.696142         2.739459         1.672471
