19
Iteration:   221
 C        -0.168447        -0.263319         0.283781
 C         1.384867        -0.202962         0.108151
 C         2.368726        -0.968338        -0.817007
 C         3.458827         0.037798        -0.492990
 C         3.677235        -0.150858         1.109051
 C         2.322258         0.388735         1.282510
 O         1.878391         0.801227         2.587850
 C         2.289162         1.096087        -0.026646
 O         1.851506         2.365946        -0.355506
 H        -0.334498         0.500179         1.040828
 H        -0.693707         0.138626        -0.575164
 H        -0.604452        -1.190502         0.556005
 H         2.613039        -2.059090        -0.687919
 H         1.995663        -0.956134        -1.882398
 H         4.218343         0.375469        -1.259506
 H         3.966395        -1.117580         1.461479
 H         4.455066         0.559712         1.498302
 H         1.001081         0.455587         2.696053
 H         1.918375         2.348407        -1.349665
