19
Iteration:  2737charge 0 multiplicity 1
 C         0.036518        -0.608026         0.467487
 C         1.342744        -0.194557         0.130841
 C         2.200244        -0.939089        -0.885315
 C         3.240609         0.199771        -0.584607
 C         3.741496        -0.098262         0.945578
 C         2.409562         0.431433         1.282932
 O         1.702225         0.714860         2.465377
 C         2.136356         1.116846         0.013123
 O         2.131820         2.510075        -0.303947
 H         0.093657        -1.625707         0.103141
 H        -0.255700        -0.715996         1.446135
 H        -0.885847        -0.335167        -0.023291
 H         2.456094        -1.945056        -0.585483
 H         1.839088        -1.065079        -1.913469
 H         3.831837         0.623785        -1.410991
 H         4.274458        -1.092616         1.210702
 H         4.451340         0.752751         1.108943
 H         2.235004         1.004774         3.235234
 H         1.524512         2.882000         0.368029
