19
Iteration:   360
 C        -0.045468        -0.123605         0.223558
 C         1.496402        -0.127382         0.221358
 C         2.315026        -0.944339        -0.743041
 C         3.512359         0.116586        -0.409536
 C         3.750601        -0.237488         1.110386
 C         2.325189         0.348630         1.349299
 O         1.703938         0.733573         2.598788
 C         2.288202         1.118322        -0.059599
 O         1.757865         2.290264        -0.642828
 H        -0.451444         0.923197         0.214793
 H        -0.393861        -0.663512        -0.711535
 H        -0.516665        -0.772639         1.015860
 H         2.566203        -2.046133        -0.535334
 H         2.045308        -0.859342        -1.814317
 H         4.278543         0.239108        -1.151010
 H         4.072617        -1.277487         1.353498
 H         4.441833         0.433991         1.580698
 H         1.397214        -0.175652         2.952323
 H         1.660902         2.983338         0.053870
