19
Iteration:  4947charge 0 multiplicity 1
 C        -0.094959        -0.316999         0.220889
 C         1.327086         0.180259        -0.041732
 C         2.037840         0.086399        -1.418168
 C         3.227743         0.715004        -0.658075
 C         3.697811        -0.421332         0.306660
 C         2.390428        -0.136779         1.053315
 O         1.890883        -0.461812         2.379021
 C         2.224218         1.241422         0.473491
 O         2.277683         2.545896         1.043533
 H        -0.796865        -0.059963        -0.556012
 H        -0.042558        -1.408053         0.439243
 H        -0.495231         0.130326         1.141983
 H         2.118860        -0.926482        -1.837520
 H         1.538548         0.817802        -2.193970
 H         4.014727         1.189798        -1.205103
 H         3.837529        -1.479075         0.049534
 H         4.579063        -0.186600         0.909505
 H         1.682899        -1.415613         2.494120
 H         1.360878         2.773230         1.362495
