19
Iteration:  1913charge 0 multiplicity 1
 C        -0.124755        -0.497741         0.338536
 C         1.406389        -0.248708         0.281739
 C         2.229407        -1.014856        -0.667585
 C         3.341491         0.069673        -0.561437
 C         3.775058         0.021503         0.933596
 C         2.346184         0.476406         1.299864
 O         1.992146         0.831666         2.617996
 C         2.230953         1.054521        -0.103115
 O         1.822813         2.372207        -0.467667
 H        -0.731532         0.407438         0.155402
 H        -0.091140        -1.010843        -0.634695
 H        -0.621220        -1.157111         1.014866
 H         2.475314        -2.068135        -0.413511
 H         1.823124        -1.074429        -1.665565
 H         3.963459         0.269894        -1.462963
 H         4.189018        -0.860981         1.376045
 H         4.378405         0.949771         1.121616
 H         2.475150         1.680056         2.776296
 H         0.848604         2.246199        -0.358330
