19
Iteration:  1223
 C        -0.088332        -0.513613         0.312812
 C         1.378873        -0.136213         0.044162
 C         2.333603        -0.954925        -0.768083
 C         3.420287         0.198542        -0.413312
 C         3.763508        -0.024452         1.174394
 C         2.282716         0.342662         1.291617
 O         1.698666         0.703142         2.530504
 C         2.232650         1.105937         0.006556
 O         2.002131         2.380826        -0.560533
 H        -0.279765        -0.366709         1.379092
 H        -0.859253        -0.102320        -0.356373
 H        -0.152523        -1.590413         0.185618
 H         2.465074        -2.041587        -0.280550
 H         2.328228        -1.200431        -1.826798
 H         4.215804         0.488871        -1.075551
 H         4.153455        -1.013734         1.402898
 H         4.472178         0.740806         1.387118
 H         1.528080         1.686945         2.578743
 H         1.237064         2.811240        -0.130104
