19
Iteration:  1647charge 0 multiplicity 1
 C        -0.098436        -0.486551         0.529961
 C         1.361233        -0.240725         0.126200
 C         2.317764        -1.020887        -0.710441
 C         3.369670         0.173490        -0.462772
 C         3.788765         0.008789         0.934027
 C         2.396091         0.509906         1.252414
 O         1.789461         0.812676         2.469626
 C         2.149088         1.077549        -0.012013
 O         1.892530         2.365491        -0.442376
 H        -0.588449         0.496346         0.458605
 H        -0.543206        -1.125111        -0.212737
 H        -0.230734        -0.866672         1.528612
 H         2.843928        -1.926522        -0.367441
 H         2.087514        -1.167749        -1.797669
 H         4.192525         0.353526        -1.304565
 H         4.257193        -1.007500         1.196208
 H         4.451378         0.844161         1.216113
 H         1.579912        -0.028181         2.959446
 H         1.823058         2.301816        -1.431682
