19
Iteration:  2577charge 0 multiplicity 1
 C        -0.107854        -0.486889         0.245953
 C         1.355159        -0.151253         0.212703
 C         2.238330        -0.919130        -0.746063
 C         3.298270         0.181282        -0.529464
 C         3.771288        -0.096679         0.940913
 C         2.400453         0.341162         1.293629
 O         1.919521         0.720254         2.561263
 C         2.149878         1.074823        -0.006244
 O         1.889915         2.433478        -0.295683
 H        -0.390066        -0.552200         1.282027
 H        -0.689780         0.259220        -0.375515
 H        -0.127061        -1.488761        -0.275260
 H         2.680393        -1.880778        -0.390401
 H         2.143447        -1.072987        -1.811309
 H         4.104459         0.146696        -1.226369
 H         4.132836        -1.054478         1.220670
 H         4.521905         0.722975         1.400598
 H         2.217347         1.639143         2.694515
 H         1.385473         2.475659        -1.126414
