19
Iteration:  2098
 C        -0.030694        -0.410769         0.608574
 C         1.406059        -0.324674         0.148433
 C         2.398301        -1.089582        -0.782802
 C         3.420139         0.131498        -0.571819
 C         3.770977        -0.121534         0.997347
 C         2.366188         0.467043         1.148200
 O         1.810338         1.006767         2.388374
 C         2.158656         0.975035        -0.159170
 O         1.775491         2.347045        -0.172612
 H        -0.413624         0.618120         0.790324
 H        -0.819831        -0.873794        -0.001327
 H        -0.101351        -0.886935         1.546083
 H         2.637502        -2.161491        -0.675705
 H         2.049910        -0.849353        -1.803449
 H         4.285808         0.035558        -1.322598
 H         4.072453        -1.210963         1.390845
 H         4.426151         0.648402         1.330428
 H         1.671491         1.923007         2.100474
 H         1.142857         2.545032        -0.901690
