19
Iteration:   573
 C        -0.160980        -0.198034         0.145434
 C         1.345378        -0.244547         0.134583
 C         2.427018        -1.035837        -0.762697
 C         3.465583         0.149262        -0.401004
 C         3.805254        -0.091876         1.089581
 C         2.283538         0.360411         1.274344
 O         1.857854         0.727926         2.573648
 C         2.151829         1.028486        -0.083279
 O         1.834366         2.341841        -0.380708
 H        -0.426502         0.860147         0.336622
 H        -0.601987        -0.516203        -0.825503
 H        -0.605277        -0.921740         0.887289
 H         2.607518        -2.203772        -0.553417
 H         2.254281        -0.927719        -1.836077
 H         4.284721         0.420435        -1.002012
 H         4.066522        -1.082508         1.373500
 H         4.536178         0.623435         1.535017
 H         0.913525         1.091191         2.504596
 H         2.283250         2.891495         0.297941
