19
Iteration:  1747
 C        -0.105590        -0.488689         0.262246
 C         1.357312        -0.241708         0.247013
 C         2.273833        -1.027946        -0.764016
 C         3.264889         0.135123        -0.527590
 C         3.804881        -0.039501         0.958248
 C         2.433665         0.533656         1.368601
 O         1.964802         0.967786         2.714270
 C         2.136214         1.060452        -0.030063
 O         1.867846         2.262775        -0.609361
 H        -0.580548         0.035497         1.068187
 H        -0.592283        -0.189895        -0.681927
 H        -0.224309        -1.528942         0.368442
 H         2.555705        -1.984595        -0.303541
 H         1.825427        -1.218657        -1.730947
 H         3.931720         0.515521        -1.300839
 H         4.251325        -1.047784         1.234862
 H         4.554661         0.819605         1.163379
 H         2.245563         0.230511         3.320952
 H         0.932088         2.485847        -0.423131
