19
Iteration:  1742charge 0 multiplicity 1
 C        -0.092240        -0.474905         0.266095
 C         1.391991        -0.247043         0.253008
 C         2.286623        -1.025421        -0.785282
 C         3.237421         0.156682        -0.524967
 C         3.800935        -0.008859         0.981094
 C         2.418256         0.488220         1.366665
 O         1.990362         0.979962         2.683753
 C         2.115481         1.054585         0.003740
 O         1.856123         2.248823        -0.607337
 H        -0.572587         0.235204         1.022263
 H        -0.506971        -0.080171        -0.679510
 H        -0.283894        -1.604204         0.374878
 H         2.719106        -1.917260        -0.289538
 H         1.773623        -1.224104        -1.761888
 H         3.960891         0.253731        -1.430398
 H         4.131465        -1.016899         1.219987
 H         4.524607         0.705836         1.238627
 H         2.065191         0.210006         3.254404
 H         0.948550         2.441676        -0.328233
