19
Iteration:  1203charge 0 multiplicity 1
 C        -0.091372        -0.639431         0.253837
 C         1.416811        -0.184495         0.061970
 C         2.446675        -0.904142        -0.752534
 C         3.427959         0.172668        -0.388567
 C         3.616844        -0.201565         1.092054
 C         2.291799         0.566966         1.346809
 O         1.820723         0.833568         2.592887
 C         2.148288         1.084012        -0.020717
 O         1.969041         2.403408        -0.548167
 H        -0.520928        -0.457592         1.252632
 H        -0.696413        -0.204884        -0.586629
 H        -0.217989        -1.755831         0.129388
 H         2.809569        -2.029180        -0.691788
 H         2.063663        -0.852546        -1.833366
 H         4.262469         0.374685        -1.111623
 H         3.509524        -1.321498         1.346690
 H         4.538512         0.221142         1.548880
 H         1.202810         1.607443         2.523324
 H         1.534943         2.878884         0.158926
