19
Iteration:  1011charge 0 multiplicity 1
 C        -0.096453        -0.511251         0.325713
 C         1.382891        -0.155606         0.010387
 C         2.344641        -0.972266        -0.893345
 C         3.429560         0.044601        -0.411699
 C         3.682520        -0.114033         1.160124
 C         2.266515         0.419636         1.223580
 O         1.800974         0.817492         2.540316
 C         2.214644         1.096810        -0.082632
 O         1.977236         2.427192        -0.275923
 H        -0.380002         0.022463         1.231525
 H        -0.857717        -0.318271        -0.419968
 H        -0.144319        -1.577268         0.543308
 H         2.408820        -2.083617        -0.565619
 H         2.041347        -0.824148        -1.926014
 H         4.336180         0.315300        -1.127179
 H         3.841656        -0.990142         1.720386
 H         4.307394         0.728049         1.551721
 H         1.061702         1.486604         2.478852
 H         2.443989         2.605532        -1.130672
