19
Iteration:  4607charge 0 multiplicity 1
 C        -0.169389        -0.042206         0.196337
 C         1.372490         0.107756        -0.023978
 C         2.075744        -0.073907        -1.356081
 C         3.283513         0.518412        -0.643844
 C         3.735001        -0.389944         0.495737
 C         2.423108        -0.095415         1.132765
 O         2.136499        -0.471974         2.504433
 C         2.230086         1.232588         0.376209
 O         1.875417         2.544900         0.736797
 H        -0.628852        -0.042503         1.205803
 H        -0.837963         0.654351        -0.393708
 H        -0.378152        -1.083129        -0.153938
 H         2.167378        -1.202418        -1.622882
 H         1.724610         0.528900        -2.208162
 H         4.075347         1.090484        -1.187427
 H         3.981358        -1.402643         0.123053
 H         4.573807         0.077392         1.102457
 H         1.272461        -0.869118         2.584363
 H         2.661579         2.941823         1.163976
