19
Iteration:  4493
 C        -0.261400        -0.158873         0.081898
 C         1.284285        -0.068419        -0.043413
 C         2.168212        -0.213901        -1.299337
 C         3.265363         0.535427        -0.677209
 C         3.675357        -0.323450         0.469767
 C         2.410714        -0.039660         1.079216
 O         2.092823        -0.123884         2.535764
 C         2.181806         1.183825         0.333563
 O         2.040217         2.523933         0.848876
 H        -0.555983        -0.581812        -0.939180
 H        -0.606819        -0.941095         0.792101
 H        -0.713292         0.826077         0.198751
 H         2.488742        -1.276471        -1.549804
 H         1.462792         0.227445        -2.056616
 H         4.243030         0.904212        -1.078229
 H         3.928672        -1.347981         0.239870
 H         4.520402         0.215811         0.899872
 H         2.526473        -1.002944         2.746547
 H         2.090510         2.556646         1.856194
