19
Iteration:  4250
 C        -0.142962        -0.188492         0.169027
 C         1.390237        -0.005309         0.031144
 C         2.080071        -0.422072        -1.268076
 C         3.288869         0.527235        -0.746193
 C         3.742037        -0.306302         0.572632
 C         2.398541         0.019468         1.221438
 O         2.069389        -0.078585         2.547167
 C         2.258297         1.191769         0.275698
 O         1.902927         2.513076         0.604169
 H        -0.599240        -0.479395        -0.777846
 H        -0.447695        -0.993967         0.862399
 H        -0.510373         0.700584         0.645654
 H         2.190985        -1.524084        -1.440547
 H         1.507285         0.022674        -2.097174
 H         4.024401         1.072782        -1.285325
 H         4.210929        -1.315319         0.424180
 H         4.378640         0.451362         0.841472
 H         1.218832        -0.519888         2.608280
 H         2.497364         2.793981         1.323621
