19
Iteration:  4405charge 0 multiplicity 1
 C        -0.060283        -0.084160         0.385117
 C         1.352161         0.110892        -0.010030
 C         2.139302        -0.179670        -1.197208
 C         3.271741         0.509518        -0.643490
 C         3.805706        -0.343049         0.551081
 C         2.415357        -0.084704         1.184331
 O         2.035961        -0.439004         2.477317
 C         2.275634         1.265933         0.396210
 O         1.793641         2.553549         0.373842
 H        -0.526285         0.879626         0.749798
 H        -0.720476        -0.313425        -0.493722
 H        -0.299067        -0.936242         1.025119
 H         2.234489        -1.246115        -1.626887
 H         1.720438         0.469389        -2.053190
 H         4.056396         0.959782        -1.344987
 H         4.068764        -1.385358         0.253360
 H         4.637425         0.072865         1.154627
 H         1.132019        -0.783416         2.201921
 H         2.233936         3.060444         1.113843
