19
Iteration:  3220
 C        -0.053155        -0.426177         0.480196
 C         1.328995        -0.160419         0.041080
 C         2.196399        -0.812292        -1.076528
 C         3.347709         0.175489        -0.645022
 C         3.741678        -0.198378         0.837963
 C         2.410224         0.280302         1.206237
 O         2.035893         0.527493         2.665796
 C         2.144311         1.168605         0.010852
 O         1.821562         2.552247         0.005907
 H        -0.762815        -0.021676        -0.238748
 H        -0.253150        -1.483611         0.528049
 H        -0.191436         0.202717         1.387210
 H         2.580609        -1.837923        -0.856662
 H         1.566057        -0.616154        -1.951805
 H         4.231784         0.398539        -1.311729
 H         4.121565        -1.215426         0.983055
 H         4.631975         0.427111         1.315149
 H         1.103153         0.737120         2.637414
 H         2.062245         2.779556        -0.912856
