19
Iteration:  2214charge 0 multiplicity 1
 C        -0.066126        -0.235380         0.447779
 C         1.472027        -0.231535         0.230389
 C         2.306887        -1.048865        -0.696914
 C         3.402784         0.065845        -0.568170
 C         3.855508         0.038402         0.990474
 C         2.407590         0.456042         1.259617
 O         1.788865         0.751564         2.559938
 C         2.189266         1.043654        -0.052961
 O         1.729944         2.252032        -0.492778
 H        -0.418806         0.512914         1.180944
 H        -0.544477        -0.053492        -0.536099
 H        -0.419053        -1.281397         0.822187
 H         2.532057        -2.100247        -0.436450
 H         1.880275        -1.031797        -1.728565
 H         4.112955         0.226780        -1.348343
 H         3.936403        -0.887595         1.487885
 H         4.786790         0.794054         1.160754
 H         2.167428         1.622501         2.753027
 H         1.048478         2.049920        -1.181966
