19
Iteration:    86
 C        -0.045194        -0.590804         0.416577
 C         1.351027        -0.177339         0.100481
 C         2.289088        -0.975474        -0.781759
 C         3.398834         0.075256        -0.473136
 C         3.618651        -0.161224         1.009232
 C         2.273974         0.388134         1.225171
 O         1.697540         0.958663         2.361609
 C         2.278689         1.146945        -0.033502
 O         2.144840         2.494003        -0.181133
 H        -0.667178         0.141783         0.917060
 H        -0.609486        -1.031272        -0.404264
 H         0.050744        -1.452488         1.102512
 H         2.548627        -2.076386        -0.693388
 H         2.022106        -0.836962        -1.801237
 H         4.112573         0.305117        -1.256971
 H         3.715213        -1.167215         1.430118
 H         4.447092         0.382989         1.429169
 H         0.965346         0.334377         2.565263
 H         2.161453         2.683349        -1.160123
