19
Iteration:  3816
 C        -0.072452        -0.389669         0.376013
 C         1.271957         0.052552         0.009522
 C         2.130053        -0.478027        -1.060707
 C         3.259195         0.352197        -0.585919
 C         3.739414        -0.227194         0.780738
 C         2.413607         0.225878         1.259580
 O         1.997890        -0.000875         2.537627
 C         2.067982         1.216476         0.108106
 O         2.129847         2.588565         0.113246
 H        -0.510190        -0.676894        -0.596867
 H        -0.011885        -1.462579         0.737853
 H        -0.678128         0.325465         0.839640
 H         2.295998        -1.538272        -0.937435
 H         1.628274        -0.308981        -2.004842
 H         3.783531         0.850465        -1.387355
 H         4.062016        -1.231691         0.907577
 H         4.564796         0.489112         1.208525
 H         2.058162        -0.955723         2.684289
 H         1.258293         3.049678         0.070403
