19
Iteration:  4656charge 0 multiplicity 1
 C        -0.157754         0.239009         0.107408
 C         1.298948         0.086546        -0.063840
 C         2.166127        -0.198358        -1.350662
 C         3.224143         0.667463        -0.664407
 C         3.869383        -0.412908         0.421092
 C         2.399580        -0.139635         1.182756
 O         2.179145        -0.518291         2.591839
 C         2.185995         1.175811         0.504147
 O         1.763121         2.429297         0.687427
 H        -0.409590         1.305491         0.323944
 H        -0.750946        -0.065839        -0.780027
 H        -0.589165        -0.316014         0.973589
 H         2.379195        -1.277632        -1.650253
 H         1.659390         0.381638        -2.184827
 H         3.973135         1.211033        -1.175798
 H         4.129008        -1.397691        -0.064786
 H         4.710560         0.032717         0.893420
 H         2.023558        -1.492764         2.759044
 H         2.164595         2.968187         1.399857
