19
Iteration:  4681charge 0 multiplicity 1
 C        -0.102631         0.179134         0.292684
 C         1.356865         0.050662         0.022684
 C         2.181564        -0.146622        -1.361351
 C         3.357767         0.612599        -0.660797
 C         3.706964        -0.424079         0.512568
 C         2.403541        -0.139577         1.071172
 O         2.106187        -0.415018         2.357966
 C         2.208565         1.186248         0.362379
 O         1.749583         2.409575         0.755512
 H        -0.412973         1.122799        -0.167757
 H        -0.650184        -0.673002        -0.155138
 H        -0.464639         0.222374         1.317541
 H         2.332658        -1.074862        -1.850777
 H         1.751212         0.707065        -1.942320
 H         4.233138         1.112124        -1.073336
 H         3.931839        -1.414037         0.217858
 H         4.512816         0.072895         1.129870
 H         2.035881        -1.353999         2.682563
 H         1.888997         2.487930         1.741738
