19
Iteration:  3549charge 0 multiplicity 1
 C        -0.186564        -0.317020         0.089980
 C         1.238135        -0.173978         0.087243
 C         2.248213        -0.777022        -0.919215
 C         3.279836         0.328326        -0.636602
 C         3.794156        -0.174503         0.785986
 C         2.431617         0.279954         1.242317
 O         2.111944         0.418016         2.546539
 C         2.129050         1.126793         0.190918
 O         1.858385         2.479163         0.205883
 H        -0.515231         0.695782         0.144848
 H        -0.615721        -0.517886        -0.886631
 H        -0.622215        -1.017849         0.850329
 H         2.662677        -1.778862        -0.909201
 H         1.722293        -0.661528        -1.866004
 H         4.022175         0.546239        -1.386916
 H         4.127932        -1.248769         0.884711
 H         4.617202         0.471004         1.127456
 H         2.698656        -0.067836         3.127963
 H         1.365896         2.685043        -0.620123
