19
Iteration:  3589
 C        -0.120237        -0.356406         0.430672
 C         1.427879        -0.177464         0.058226
 C         2.263626        -0.657863        -1.086980
 C         3.340741         0.228230        -0.695854
 C         3.759221        -0.151442         0.747774
 C         2.408983         0.238915         1.221489
 O         1.905074         0.405065         2.496188
 C         2.146692         1.166693         0.145931
 O         1.921830         2.504189         0.225182
 H        -0.786169         0.272907        -0.313465
 H        -0.481455        -1.377180         0.276708
 H        -0.275352        -0.068587         1.525839
 H         2.529865        -1.754081        -1.045948
 H         1.794896        -0.430247        -2.078845
 H         4.070010         0.547253        -1.491682
 H         4.135165        -1.190791         1.041165
 H         4.426107         0.583080         1.118164
 H         1.431079        -0.433017         2.707990
 H         1.411155         2.786808        -0.549802
