19
Iteration:  3190
 C        -0.081510        -0.320675         0.534278
 C         1.385216        -0.203235         0.077954
 C         2.230609        -0.784849        -0.963587
 C         3.349011         0.206179        -0.609627
 C         3.826490        -0.169845         0.774329
 C         2.402691         0.203195         1.187284
 O         1.889293         0.577614         2.423065
 C         2.187666         1.098565        -0.002170
 O         1.839359         2.403155         0.148200
 H        -0.537632         0.559744         0.104181
 H        -0.538912        -1.285987         0.120928
 H        -0.067117        -0.080686         1.588317
 H         2.569223        -1.829590        -0.772154
 H         1.797317        -0.584052        -1.963909
 H         4.102990         0.570155        -1.317963
 H         4.156966        -1.224220         0.798245
 H         4.476100         0.730917         1.170440
 H         1.789099         1.560945         2.308492
 H         1.193797         2.497757        -0.575356
