19
Iteration:   469charge 0 multiplicity 1
 C        -0.155109        -0.644438         0.230182
 C         1.308723        -0.103570         0.025047
 C         2.311450        -0.951228        -0.904707
 C         3.347244         0.063934        -0.380119
 C         3.660545        -0.144416         1.107698
 C         2.331837         0.523120         1.413546
 O         1.758085         0.787343         2.580629
 C         2.271988         1.140157         0.072167
 O         2.168642         2.442595        -0.474970
 H        -0.859755        -0.396575         1.037475
 H        -0.558190        -0.323434        -0.750522
 H        -0.013090        -1.726458         0.247809
 H         2.512074        -2.007463        -0.476938
 H         2.034449        -0.973382        -2.032938
 H         4.207947         0.271733        -1.042387
 H         3.824979        -1.194013         1.457398
 H         4.533970         0.459716         1.218444
 H         1.377515         1.693645         2.495875
 H         1.400981         2.893138        -0.039047
