19
Iteration:  4154
 C        -0.058336        -0.181372         0.403786
 C         1.435613        -0.037762         0.052085
 C         2.165427        -0.316731        -1.218793
 C         3.310513         0.447151        -0.691384
 C         3.828336        -0.406686         0.595494
 C         2.445650        -0.025198         1.152800
 O         1.892106        -0.023295         2.468198
 C         2.208649         1.212251         0.355959
 O         1.763341         2.551964         0.342637
 H        -0.390612         0.149516         1.429025
 H        -0.645744         0.440591        -0.319667
 H        -0.301045        -1.225351         0.242471
 H         2.278376        -1.328738        -1.615137
 H         1.779673         0.348499        -1.995380
 H         4.038296         0.947316        -1.316346
 H         3.968796        -1.501261         0.648906
 H         4.574720         0.185768         1.200300
 H         1.950594        -0.959353         2.738189
 H         2.425613         3.142106         0.799011
