19
Iteration:  2527charge 0 multiplicity 1
 C         0.048537        -0.563860         0.707681
 C         1.337505        -0.157629         0.040768
 C         2.256156        -0.868881        -0.876048
 C         3.419392         0.122712        -0.472266
 C         3.729685        -0.105748         1.039131
 C         2.305701         0.393181         1.188718
 O         1.683434         0.653554         2.386807
 C         2.179211         1.117338        -0.037964
 O         2.022777         2.481367        -0.348607
 H         0.340397        -1.568110         1.142468
 H        -0.149877         0.111144         1.534968
 H        -0.698924        -0.476926        -0.057356
 H         2.490949        -1.957766        -0.816181
 H         1.798840        -0.750125        -1.914423
 H         4.155860         0.614215        -1.134598
 H         3.873736        -1.141926         1.435748
 H         4.356483         0.665136         1.418021
 H         1.733397         1.629995         2.541923
 H         1.682993         2.441374        -1.276868
