19
Iteration:  3002
 C        -0.091228        -0.473422         0.251435
 C         1.386898        -0.165990         0.210929
 C         2.208777        -0.882874        -0.837538
 C         3.330235         0.236545        -0.672519
 C         3.838396        -0.109669         0.819908
 C         2.357762         0.216486         1.312291
 O         1.984866         0.674458         2.493052
 C         2.147309         1.120180         0.002852
 O         1.882648         2.444686         0.045440
 H        -0.249086        -1.534385         0.440651
 H        -0.773102         0.111019         0.945611
 H        -0.582427        -0.204674        -0.791831
 H         2.443303        -1.971540        -0.703251
 H         1.588656        -0.871761        -1.781112
 H         3.962613         0.462401        -1.584978
 H         4.081390        -1.088537         1.073107
 H         4.505483         0.682321         1.148709
 H         2.161550         1.637307         2.634343
 H         1.053296         2.545886        -0.459099
