19
Iteration:   507charge 0 multiplicity 1
 C        -0.102029        -0.560665         0.478671
 C         1.380967        -0.222041         0.107712
 C         2.401857        -0.911221        -0.882431
 C         3.396468         0.152218        -0.446961
 C         3.600800        -0.159992         1.062356
 C         2.241958         0.287168         1.221399
 O         1.553925         0.874744         2.341109
 C         2.247548         1.129773        -0.036493
 O         2.195077         2.445209        -0.320959
 H        -0.615084         0.107626         1.215155
 H        -0.711003        -0.694393        -0.443294
 H        -0.193403        -1.626538         0.892636
 H         2.759726        -2.014421        -0.760992
 H         2.066193        -0.774373        -1.881114
 H         4.310102         0.419370        -0.972721
 H         3.858888        -1.120913         1.475921
 H         4.335668         0.597816         1.458370
 H         2.261109         1.342615         2.759906
 H         2.126735         3.036965         0.438359
