19
Iteration:   943
 C        -0.073326        -0.430672         0.225149
 C         1.378697        -0.225426         0.113101
 C         2.336179        -1.052717        -0.738336
 C         3.485298        -0.003969        -0.495222
 C         3.768095        -0.075414         1.052551
 C         2.245508         0.308612         1.251298
 O         1.662793         0.989258         2.369011
 C         2.270776         1.032561        -0.129605
 O         1.932444         2.448411        -0.130438
 H        -0.332818        -0.218925         1.236939
 H        -0.675140         0.152453        -0.451300
 H        -0.293542        -1.484572         0.007879
 H         2.655034        -2.077996        -0.352100
 H         2.002691        -1.127751        -1.831200
 H         4.209359         0.250284        -1.310435
 H         4.240169        -0.943773         1.464808
 H         4.342157         0.829621         1.296043
 H         2.379751         1.436409         2.804911
 H         1.208567         2.523039         0.534466
