19
Iteration:  3506
 C        -0.096197        -0.214745         0.235731
 C         1.406890        -0.134386         0.097779
 C         2.157773        -0.690477        -1.057522
 C         3.346647         0.272398        -0.553238
 C         3.723073        -0.171836         0.817548
 C         2.426774         0.219854         1.277300
 O         2.047217         0.407059         2.576380
 C         2.234809         1.120209         0.192776
 O         1.743987         2.411106         0.011453
 H        -0.282067        -0.222384         1.292134
 H        -0.863118         0.461185        -0.291836
 H        -0.351425        -1.240976        -0.154831
 H         2.252252        -1.796264        -1.023967
 H         1.806237        -0.329121        -2.041933
 H         4.132236         0.619277        -1.206473
 H         3.968584        -1.223089         0.859059
 H         4.611862         0.362598         1.278946
 H         2.587109        -0.105479         3.199153
 H         1.283665         2.541304        -0.853954
