19
Iteration:  3277charge 0 multiplicity 1
 C        -0.131760        -0.376414         0.365469
 C         1.310985        -0.107378         0.153134
 C         2.228193        -0.812271        -0.962694
 C         3.206284         0.240300        -0.545686
 C         3.784550        -0.107552         0.798634
 C         2.379793         0.279048         1.309082
 O         2.087108         0.333898         2.722045
 C         2.180207         1.195259         0.064262
 O         1.985925         2.584935        -0.295625
 H        -0.489242        -0.902575        -0.450374
 H        -0.211946        -0.953921         1.327260
 H        -0.851086         0.379356         0.572305
 H         2.471268        -1.826108        -1.243797
 H         1.627951        -0.508176        -1.829968
 H         3.909985         0.541634        -1.316052
 H         4.130675        -1.166372         0.791786
 H         4.575138         0.750254         1.188448
 H         1.384060        -0.370137         2.828337
 H         1.002908         2.597901        -0.296983
