19
Iteration:  3352charge 0 multiplicity 1
 C        -0.019091        -0.241598         0.312272
 C         1.389205        -0.184016         0.097264
 C         2.224175        -0.801503        -1.010282
 C         3.387530         0.225416        -0.563553
 C         3.809093        -0.245238         0.835777
 C         2.425856         0.262869         1.202669
 O         1.984354         0.632045         2.509117
 C         2.190531         1.131163         0.002368
 O         1.620537         2.354861         0.146180
 H        -0.497173        -0.949719        -0.330579
 H        -0.193241        -0.558303         1.395800
 H        -0.648071         0.722832         0.151313
 H         2.342916        -1.931583        -1.068495
 H         1.967958        -0.500990        -2.046916
 H         4.089368         0.479107        -1.361769
 H         3.944853        -1.278979         0.916403
 H         4.505972         0.548760         1.144224
 H         1.969799        -0.106704         3.121781
 H         2.147406         2.989939        -0.341248
