19
Iteration:  2730
 C        -0.020123        -0.687991         0.461656
 C         1.387797        -0.176194         0.160584
 C         2.177668        -0.906044        -0.827481
 C         3.214237         0.236308        -0.652084
 C         3.791816        -0.118751         0.928543
 C         2.413301         0.401217         1.323064
 O         1.660836         0.682905         2.494688
 C         2.181931         1.140397         0.005767
 O         2.160252         2.553779        -0.366237
 H         0.018646        -1.664016        -0.070091
 H        -0.176598        -0.994832         1.599168
 H        -0.864583        -0.006540         0.034645
 H         2.554224        -1.913390        -0.469255
 H         1.757857        -0.941052        -1.843512
 H         3.819013         0.640638        -1.445376
 H         4.072223        -1.161679         1.425068
 H         4.452668         0.645893         1.230777
 H         2.325684         1.033415         3.145055
 H         1.345067         2.887248         0.098343
