19
Iteration:  2156
 C        -0.073369        -0.474585         0.536179
 C         1.369949        -0.118998         0.258737
 C         2.233508        -0.991054        -0.646509
 C         3.356838         0.087991        -0.490403
 C         3.767482         0.027340         0.967203
 C         2.393268         0.565740         1.250448
 O         1.819518         0.565697         2.637552
 C         2.171689         1.153259        -0.197876
 O         1.910485         2.388824        -0.655515
 H        -0.794640         0.360045         0.578980
 H        -0.342646        -1.174675        -0.273125
 H        -0.113405        -1.043779         1.494075
 H         2.388497        -2.039239        -0.320565
 H         1.774006        -1.009685        -1.624071
 H         4.297040         0.316088        -1.089213
 H         4.076615        -0.883920         1.494283
 H         4.601305         0.815046         0.871078
 H         2.516895         1.099585         3.101721
 H         1.479624         2.266358        -1.513692
