19
Iteration:  2430
 C        -0.121267        -0.246140         0.182554
 C         1.371569        -0.309180         0.199964
 C         2.311911        -1.078718        -0.752384
 C         3.425565         0.116795        -0.523010
 C         3.807579        -0.015477         1.032300
 C         2.437465         0.424188         1.351452
 O         2.035746         0.809008         2.568701
 C         2.128430         0.999014        -0.018203
 O         1.641175         2.297187        -0.339750
 H        -0.261554         0.444685        -0.668555
 H        -0.548831        -1.196705        -0.056460
 H        -0.464622         0.238228         1.134185
 H         2.822771        -1.995070        -0.380921
 H         2.024255        -1.337889        -1.775319
 H         4.194603         0.496882        -1.232629
 H         4.006786        -0.986716         1.630977
 H         4.442563         0.749279         1.232885
 H         1.730890         1.751042         2.503139
 H         1.088269         2.414882        -1.143128
