19
Iteration:  1984charge 0 multiplicity 1
 C         0.055014        -0.398976         0.651686
 C         1.460656        -0.129210         0.224394
 C         2.302399        -1.021970        -0.741349
 C         3.366201         0.054389        -0.479696
 C         3.849020        -0.033530         1.014385
 C         2.387072         0.580674         1.270085
 O         1.740798         0.638364         2.507477
 C         2.179441         1.150077        -0.116081
 O         1.722602         2.310970        -0.646924
 H        -0.064329         0.220660         1.538732
 H        -0.563060         0.185620         0.003018
 H        -0.344766        -1.425815         0.825204
 H         2.331496        -2.099283        -0.579303
 H         2.053059        -0.989614        -1.823965
 H         4.105432         0.371059        -1.146134
 H         3.936346        -1.111284         1.446406
 H         4.686631         0.693227         1.182058
 H         2.218060         1.392118         2.947565
 H         1.222977         2.126274        -1.481286
