19
Iteration:  2208charge 0 multiplicity 1
 C        -0.120543        -0.257437         0.437437
 C         1.382918        -0.224784         0.253113
 C         2.366219        -1.036615        -0.675892
 C         3.371391         0.058547        -0.562811
 C         3.838907         0.086623         0.988824
 C         2.415241         0.453766         1.277185
 O         1.825250         0.716884         2.587487
 C         2.171862         1.025242        -0.078787
 O         1.774726         2.278014        -0.544564
 H        -0.352211         0.575320         1.119496
 H        -0.630469        -0.147634        -0.530287
 H        -0.351157        -1.173721         0.886033
 H         2.617407        -2.071135        -0.404731
 H         2.024964        -0.947379        -1.718807
 H         4.037361         0.344308        -1.424758
 H         4.221381        -1.014694         1.238092
 H         4.617657         0.632464         1.373685
 H         2.176543         1.595085         2.887367
 H         1.123542         1.992386        -1.211837
