19
Iteration:  2213charge 0 multiplicity 1
 C        -0.078373        -0.236402         0.445413
 C         1.457488        -0.230221         0.234513
 C         2.318092        -1.046445        -0.693201
 C         3.397317         0.063064        -0.571158
 C         3.851895         0.048113         0.992114
 C         2.410025         0.454471         1.256870
 O         1.793920         0.745935         2.567653
 C         2.185131         1.039014        -0.054388
 O         1.738231         2.256791        -0.501782
 H        -0.403488         0.518969         1.165945
 H        -0.553625        -0.070256        -0.532257
 H        -0.406280        -1.280140         0.839124
 H         2.541685        -2.094244        -0.431025
 H         1.914341        -1.009799        -1.715336
 H         4.093277         0.245486        -1.361694
 H         3.973911        -0.891800         1.438956
 H         4.791248         0.770514         1.203769
 H         2.167848         1.608436         2.768989
 H         1.065448         2.027411        -1.182016
