19
Iteration:  3386
 C        -0.159174        -0.452035         0.145780
 C         1.341419        -0.208311         0.119278
 C         2.188581        -0.731360        -0.946849
 C         3.297358         0.312586        -0.567675
 C         3.749232        -0.201429         0.743031
 C         2.366838         0.271436         1.312517
 O         2.187120         0.605361         2.693718
 C         2.156739         1.070514         0.077091
 O         1.821113         2.490170         0.027830
 H        -0.397608        -1.330640        -0.404240
 H        -0.473796        -0.822071         1.196482
 H        -0.708293         0.466704        -0.196688
 H         2.410020        -1.824138        -0.815246
 H         1.840875        -0.376584        -1.936541
 H         3.925690         0.576393        -1.397148
 H         4.101572        -1.198885         0.756412
 H         4.609100         0.422356         1.216306
 H         1.380686         0.077281         2.894665
 H         2.095700         2.720791        -0.864485
