19
Iteration:  4093charge 0 multiplicity 1
 C        -0.194346        -0.208067         0.095272
 C         1.295552        -0.091243         0.028397
 C         2.117256        -0.554942        -1.109403
 C         3.326490         0.471701        -0.694926
 C         3.767226        -0.223321         0.625040
 C         2.389117         0.038329         1.136748
 O         2.220663         0.038166         2.542304
 C         2.210111         1.246714         0.215326
 O         1.867387         2.505621         0.526079
 H        -0.563401        -1.238352         0.196018
 H        -0.602791         0.442075         0.878530
 H        -0.636284         0.168335        -0.875122
 H         2.286579        -1.665606        -1.251592
 H         1.664627        -0.088385        -2.012203
 H         4.050396         0.895696        -1.510165
 H         4.001416        -1.343557         0.612393
 H         4.372387         0.257393         1.450297
 H         1.326444        -0.060753         2.950534
 H         1.970185         2.740999         1.496805
