19
Iteration:   964charge 0 multiplicity 1
 C        -0.146987        -0.404360         0.296546
 C         1.326313        -0.213171         0.104207
 C         2.376750        -1.048068        -0.647629
 C         3.386234         0.115813        -0.551913
 C         3.840992         0.016498         1.006610
 C         2.359128         0.297226         1.257590
 O         1.580698         0.917112         2.194907
 C         2.215400         0.975938        -0.023132
 O         2.081284         2.344587        -0.000284
 H        -0.497713        -0.163631         1.278356
 H        -0.683503         0.190632        -0.446368
 H        -0.348702        -1.437127        -0.016400
 H         2.655235        -2.014381        -0.088221
 H         2.077806        -1.277859        -1.762160
 H         4.188278         0.319928        -1.273112
 H         4.279586        -0.937313         1.124848
 H         4.535341         0.781975         1.243771
 H         1.926956         1.866922         2.350656
 H         1.179763         2.575724        -0.260136
