19
Iteration:  2449
 C        -0.152744        -0.301121         0.127091
 C         1.375825        -0.268870         0.128965
 C         2.360227        -1.067367        -0.690755
 C         3.370262         0.086879        -0.490868
 C         3.819545         0.024396         0.941618
 C         2.315799         0.391578         1.319965
 O         2.014617         0.843899         2.619495
 C         2.179605         1.027989        -0.036754
 O         1.703996         2.288965        -0.244500
 H        -0.725313        -0.303486        -0.908191
 H        -0.368756        -1.337403         0.579436
 H        -0.501859         0.465191         0.803096
 H         2.504684        -2.087241        -0.275889
 H         2.092885        -1.021251        -1.797024
 H         4.009861         0.199969        -1.344078
 H         4.394028        -0.860360         1.240571
 H         4.427799         0.896627         1.231197
 H         2.188942         1.809374         2.651948
 H         1.456107         2.358105        -1.188737
