19
Iteration:   305
 C        -0.146350        -0.610261         0.334760
 C         1.353896        -0.194600         0.165341
 C         2.193838        -0.974486        -0.825676
 C         3.337567         0.119422        -0.506197
 C         3.694113        -0.015593         1.061715
 C         2.220552         0.283650         1.281614
 O         1.660349         0.906349         2.394677
 C         2.277917         1.102323        -0.001726
 O         2.384585         2.499038        -0.318279
 H        -0.974031         0.145081         0.407197
 H        -0.469563        -1.343614        -0.471961
 H        -0.223803        -1.077649         1.361519
 H         2.499852        -1.953609        -0.408091
 H         1.835702        -0.924283        -1.824772
 H         4.070612         0.356030        -1.232201
 H         3.980039        -1.097177         1.211360
 H         4.311554         0.748149         1.478468
 H         1.796348         0.347266         3.205277
 H         1.487374         2.774489        -0.503882
