19
Iteration:  2229
 C         0.090667        -0.249643         0.441190
 C         1.489985        -0.205466         0.273643
 C         2.260141        -1.083995        -0.767918
 C         3.418679        -0.005011        -0.502270
 C         3.775137        -0.076388         0.993074
 C         2.428135         0.464411         1.305592
 O         1.762033         0.865677         2.411295
 C         2.274506         1.052471        -0.103457
 O         1.594640         2.270201        -0.373360
 H        -0.144165         0.382902         1.331305
 H        -0.428819         0.207696        -0.438846
 H        -0.251280        -1.245304         0.568076
 H         2.535403        -2.106785        -0.451322
 H         1.730800        -1.044506        -1.754621
 H         4.297529         0.217978        -1.169809
 H         4.513606        -0.966662         1.313088
 H         4.434470         0.739341         1.222756
 H         1.975490         1.730869         2.768509
 H         0.975084         2.121690        -1.105072
