19
Iteration:  1378
 C        -0.070279        -0.421858         0.386568
 C         1.449418        -0.245108         0.007991
 C         2.406874        -1.070125        -0.741449
 C         3.421282         0.076719        -0.460687
 C         3.763051         0.079296         1.068346
 C         2.313155         0.474772         1.196230
 O         1.763436         0.676239         2.523342
 C         2.138396         1.086881        -0.136758
 O         1.832748         2.448626        -0.257379
 H        -0.526443         0.540746         0.440366
 H        -0.687160        -0.942714        -0.357565
 H        -0.142133        -1.100804         1.234338
 H         2.601303        -2.104299        -0.337690
 H         2.166454        -1.332632        -1.778137
 H         4.280958         0.197960        -1.145029
 H         3.981274        -0.842685         1.625321
 H         4.512316         0.687285         1.450894
 H         1.236725         1.475630         2.516960
 H         2.170767         2.630198        -1.176401
