19
Iteration:  3542
 C        -0.263280        -0.302553         0.065939
 C         1.328001        -0.255332         0.146520
 C         2.226945        -0.805275        -0.963558
 C         3.305929         0.304983        -0.660183
 C         3.772151        -0.163271         0.725876
 C         2.416502         0.268394         1.322674
 O         2.111965         0.427665         2.612365
 C         2.188095         1.177155         0.147351
 O         1.825440         2.508427         0.190147
 H        -0.682113         0.694199         0.489816
 H        -0.619371        -0.324868        -1.055278
 H        -0.637465        -1.091698         0.663444
 H         2.649660        -1.852159        -0.986037
 H         1.843244        -0.605207        -2.002407
 H         4.191932         0.653308        -1.240562
 H         3.951797        -1.195668         0.773006
 H         4.617250         0.456252         1.244813
 H         2.788229        -0.032261         3.158761
 H         1.407647         2.601404        -0.706820
