19
Iteration:  3634
 C        -0.006249        -0.415411         0.533031
 C         1.356147        -0.022737         0.044010
 C         2.253918        -0.536823        -1.098303
 C         3.292402         0.268894        -0.614629
 C         3.710492        -0.265683         0.737580
 C         2.333623         0.209366         1.262777
 O         1.920950         0.253373         2.550781
 C         2.268268         1.215182         0.123911
 O         1.883320         2.585986         0.070471
 H        -0.415301        -1.219455        -0.270752
 H        -0.119172        -0.786064         1.558761
 H        -0.774391         0.495471         0.370923
 H         2.713143        -1.587464        -1.162067
 H         2.007738        -0.257343        -2.156322
 H         4.187845         0.540740        -1.165476
 H         3.888773        -1.417430         0.780283
 H         4.564248         0.269087         0.950441
 H         1.311381        -0.507715         2.684198
 H         1.468430         2.583897        -0.802046
