19
Iteration:  3961
 C        -0.085823        -0.160389         0.273689
 C         1.400851        -0.090970         0.051906
 C         2.113877        -0.477349        -1.192979
 C         3.230903         0.441570        -0.663887
 C         3.724054        -0.230388         0.717402
 C         2.337948         0.015482         1.280051
 O         2.088060        -0.034435         2.584559
 C         2.231947         1.172393         0.211658
 O         1.894114         2.579529         0.194999
 H        -0.628193         0.745782         0.577889
 H        -0.454208        -0.352837        -0.744534
 H        -0.388631        -1.031391         0.908698
 H         2.349340        -1.510668        -1.466447
 H         1.543590        -0.021645        -2.026983
 H         4.022703         0.886370        -1.308584
 H         4.357344        -1.138201         0.714699
 H         4.351976         0.532253         1.241044
 H         1.798635        -0.881622         3.015417
 H         2.092933         2.964185         1.064279
