19
Iteration:  2417
 C        -0.060488        -0.177136         0.227289
 C         1.466697        -0.318060         0.280461
 C         2.406151        -1.031826        -0.717014
 C         3.365285         0.101863        -0.502010
 C         3.797455        -0.072223         0.992218
 C         2.359608         0.453032         1.268814
 O         1.974070         0.814050         2.576975
 C         2.192347         1.051117        -0.044664
 O         1.646636         2.267354        -0.373852
 H        -0.631984         0.647733        -0.331803
 H        -0.491183        -1.131369        -0.165838
 H        -0.569071        -0.192122         1.186546
 H         2.608095        -2.105977        -0.467728
 H         1.940839        -0.946197        -1.730793
 H         4.088666         0.281784        -1.276440
 H         4.170309        -1.108546         1.203851
 H         4.471128         0.580698         1.317769
 H         1.387425         1.575674         2.557644
 H         0.977519         1.984811        -1.025415
