19
Iteration:   835charge 0 multiplicity 1
 C        -0.045514        -0.003612         0.413594
 C         1.423317        -0.101314         0.049316
 C         2.435104        -1.074830        -0.637445
 C         3.418889         0.202480        -0.375357
 C         3.746168         0.124785         1.053225
 C         2.269129         0.244778         1.338765
 O         1.689425         0.227631         2.614660
 C         2.191871         1.145269        -0.122935
 O         1.851323         2.316018        -0.767376
 H        -0.221373         1.055761         0.572762
 H        -0.822924        -0.383573        -0.244115
 H        -0.137063        -0.339919         1.473003
 H         2.630963        -2.022987        -0.175591
 H         2.241972        -1.281359        -1.639743
 H         4.304829         0.161506        -1.101985
 H         4.238786        -0.747165         1.531440
 H         4.301181         1.121931         1.271151
 H         1.598847         1.123684         2.927457
 H         2.135439         3.109660        -0.249074
