19
Iteration:  1574
 C         0.009508        -0.503937         0.433356
 C         1.427640        -0.173194         0.074700
 C         2.360873        -1.040622        -0.750924
 C         3.388521         0.124831        -0.493827
 C         3.770457        -0.106000         0.994370
 C         2.318950         0.463790         1.312145
 O         1.750585         0.950172         2.508590
 C         2.213374         1.110565        -0.046583
 O         1.722901         2.339928        -0.450013
 H        -0.447778         0.377586         0.914515
 H        -0.514033        -0.818964        -0.533140
 H        -0.025360        -1.282447         1.262432
 H         2.513975        -1.996970        -0.221643
 H         1.996931        -1.236726        -1.753764
 H         4.197800         0.311609        -1.116600
 H         4.007178        -1.169430         1.116554
 H         4.678033         0.558554         1.297872
 H         1.831887         0.297679         3.231420
 H         2.499576         2.797882        -0.851609
