19
Iteration:  1246
 C        -0.046694        -0.327538         0.396742
 C         1.437258        -0.250829         0.228109
 C         2.416394        -0.993981        -0.731191
 C         3.402888         0.087982        -0.471545
 C         3.750863         0.157685         1.067840
 C         2.306591         0.390817         1.239200
 O         1.513652         0.587526         2.483798
 C         2.208364         1.040097        -0.113855
 O         2.041720         2.378344        -0.458857
 H        -0.255232        -0.014367         1.417007
 H        -0.582248         0.213646        -0.412005
 H        -0.383865        -1.381993         0.300160
 H         2.725679        -2.161551        -0.675835
 H         2.237611        -0.976127        -1.857815
 H         4.273400         0.422881        -1.103702
 H         4.318023        -0.743657         1.402039
 H         4.263091         1.090074         1.243551
 H         1.876343         1.194068         3.138697
 H         1.128395         2.615990        -0.669154
