19
Iteration:  1162charge 0 multiplicity 1
 C        -0.081399        -0.554561         0.148211
 C         1.345520        -0.162051         0.119404
 C         2.359166        -0.846560        -0.788572
 C         3.466767         0.086352        -0.397511
 C         3.751990        -0.096732         1.110875
 C         2.267457         0.331565         1.350177
 O         1.813292         0.990917         2.469539
 C         2.213330         1.064688        -0.020385
 O         1.852891         2.279101        -0.379144
 H        -0.668166         0.030592         0.870582
 H        -0.556152        -0.563086        -0.846505
 H        -0.115055        -1.607550         0.594548
 H         2.382291        -1.865981        -0.598954
 H         2.177448        -0.599640        -1.882762
 H         4.436979         0.359301        -0.989727
 H         4.056176        -1.145711         1.487279
 H         4.570901         0.616964         1.514643
 H         0.972747         0.541304         2.730845
 H         2.406235         3.019715        -0.026603
