19
Iteration:  4536
 C        -0.092915        -0.337458         0.239649
 C         1.252347         0.164744        -0.015230
 C         2.064475        -0.153676        -1.408610
 C         3.248489         0.550880        -0.633641
 C         3.744390        -0.312443         0.457448
 C         2.337489        -0.032435         1.107989
 O         1.936418        -0.172313         2.447108
 C         2.235404         1.189625         0.374522
 O         2.173800         2.489566         0.806063
 H        -0.177650        -1.420826        -0.012081
 H        -0.510611        -0.316336         1.215344
 H        -0.705573         0.120983        -0.516722
 H         2.295820        -1.159482        -1.658641
 H         1.822514         0.416035        -2.329919
 H         4.030988         0.970928        -1.313340
 H         4.148924        -1.294120         0.210525
 H         4.450569         0.312103         0.934941
 H         1.486453        -0.970176         2.763077
 H         2.126747         2.396537         1.786376
