19
Iteration:  4240
 C        -0.137341        -0.192981         0.188570
 C         1.303344         0.045209         0.046110
 C         2.051283        -0.377959        -1.244438
 C         3.248691         0.496207        -0.685412
 C         3.772117        -0.190150         0.530673
 C         2.486613         0.020467         1.199669
 O         2.033629        -0.123407         2.588249
 C         2.281807         1.193885         0.309343
 O         1.930874         2.457476         0.508257
 H        -0.554038        -0.069418        -0.844772
 H        -0.354695        -1.214588         0.574597
 H        -0.677959         0.555355         0.740769
 H         2.159060        -1.474771        -1.273349
 H         1.686087        -0.038910        -2.212876
 H         4.009688         0.899084        -1.318096
 H         4.023880        -1.295696         0.524722
 H         4.607276         0.306906         1.025948
 H         1.369245        -0.811804         2.460370
 H         2.428799         2.821036         1.239055
