19
Iteration:   934charge 0 multiplicity 1
 C        -0.064936        -0.434974         0.228492
 C         1.398802        -0.245676         0.093857
 C         2.354989        -1.051707        -0.797118
 C         3.442352         0.008702        -0.534808
 C         3.719193        -0.059585         1.197358
 C         2.302424         0.366382         1.233763
 O         1.722204         0.953659         2.427424
 C         2.196170         1.018663        -0.119824
 O         1.885686         2.462254        -0.231015
 H        -0.504282        -0.180954         1.182451
 H        -0.594901         0.151643        -0.512064
 H        -0.212527        -1.502382         0.003536
 H         2.513017        -2.109686        -0.512571
 H         1.941171        -0.983531        -1.777395
 H         4.454494         0.207131        -1.113193
 H         4.013587        -1.082880         1.440737
 H         4.568487         0.642483         1.484479
 H         2.451712         1.347074         2.882245
 H         1.646198         2.613358         0.719560
