19
Iteration:  4371charge 0 multiplicity 1
 C        -0.089314        -0.156130         0.301347
 C         1.342358         0.040377        -0.018164
 C         2.120187        -0.269940        -1.257243
 C         3.170559         0.583170        -0.621443
 C         3.706367        -0.314993         0.673417
 C         2.395609        -0.010718         1.206816
 O         2.138235        -0.495169         2.491536
 C         2.176565         1.237820         0.349674
 O         1.954036         2.677627         0.364842
 H        -0.331320        -0.059189         1.394548
 H        -0.617935         0.617830        -0.289161
 H        -0.370959        -1.164526         0.009866
 H         2.282715        -1.379159        -1.460961
 H         1.688572         0.331627        -2.141160
 H         3.933343         1.106375        -1.274224
 H         3.912418        -1.364631         0.370675
 H         4.562750         0.117700         1.155988
 H         1.173209        -0.683588         2.663366
 H         2.631172         3.192054         0.844719
