19
Iteration:  4725
 C        -0.083130        -0.204282         0.279137
 C         1.286811         0.132397        -0.094442
 C         2.134252        -0.024940        -1.396811
 C         3.270377         0.624895        -0.605557
 C         3.772674        -0.448351         0.399243
 C         2.395964        -0.043266         1.097185
 O         1.873832        -0.281200         2.398420
 C         2.255039         1.183419         0.410935
 O         2.037730         2.462178         0.912546
 H        -0.627691        -0.581147        -0.614017
 H         0.022932        -1.135788         0.889675
 H        -0.739721         0.507435         0.801653
 H         2.433905        -1.061900        -1.588192
 H         1.527089         0.529761        -2.230503
 H         3.896845         1.164401        -1.349067
 H         3.823908        -1.408346        -0.045603
 H         4.666445        -0.149901         1.052635
 H         1.359869        -1.114712         2.189528
 H         2.870580         2.674004         1.442581
