19
Iteration:   275
 C        -0.074135        -0.600256         0.434934
 C         1.367830        -0.165619         0.144455
 C         2.183156        -1.016151        -0.858099
 C         3.408522        -0.002396        -0.480586
 C         3.752778        -0.137195         0.995316
 C         2.317914         0.449265         1.260905
 O         1.552671         1.021427         2.314378
 C         2.285990         1.120076        -0.118359
 O         2.250829         2.487453        -0.080599
 H        -0.810419         0.145925         0.787653
 H        -0.482604        -1.198985        -0.392093
 H         0.052629        -1.313354         1.262306
 H         2.346788        -2.062513        -0.580880
 H         1.841698        -0.952940        -1.885928
 H         4.229084         0.269370        -1.247354
 H         3.923863        -1.259243         1.137664
 H         4.703324         0.390385         1.326517
 H         1.021339         0.333599         2.686370
 H         1.620550         2.727148        -0.805352
