19
Iteration:  2425charge 0 multiplicity 1
 C        -0.103799        -0.195736         0.199829
 C         1.423040        -0.357904         0.250546
 C         2.336577        -1.059753        -0.753666
 C         3.418272         0.125701        -0.516220
 C         3.788958        -0.074018         1.017220
 C         2.407768         0.459713         1.315391
 O         2.016162         0.808018         2.564895
 C         2.140406         1.012254        -0.020453
 O         1.640307         2.293892        -0.357061
 H        -0.481819         0.558686        -0.607717
 H        -0.461908        -1.223630        -0.148139
 H        -0.496880         0.059189         1.179811
 H         2.720020        -1.978752        -0.275187
 H         2.022299        -1.183936        -1.827036
 H         4.121139         0.414406        -1.285732
 H         4.128180        -0.930468         1.530794
 H         4.600693         0.764839         1.346550
 H         1.592483         1.665735         2.532729
 H         1.020115         2.264945        -1.104738
