19
Iteration:  1833
 C        -0.015595        -0.349217         0.632048
 C         1.432042        -0.215574         0.141033
 C         2.275098        -1.091433        -0.809713
 C         3.350077         0.087580        -0.542114
 C         3.854557         0.014279         1.011906
 C         2.420643         0.392760         1.251728
 O         1.789156         0.845134         2.344643
 C         2.195868         1.040999        -0.026989
 O         1.772824         2.312199        -0.303727
 H        -0.437700         0.499210         1.161573
 H        -0.802410        -0.537738        -0.142662
 H        -0.045676        -1.224698         1.303069
 H         2.431850        -2.160661        -0.639854
 H         1.832107        -0.864677        -1.802543
 H         4.160231         0.318380        -1.228961
 H         4.170208        -1.033566         1.268884
 H         4.531589         0.670143         1.368267
 H         1.344599         1.645260         1.974563
 H         1.870302         2.587371        -1.240586
