19
Iteration:  4842charge 0 multiplicity 1
 C        -0.027278         0.129057         0.339191
 C         1.346867         0.199646        -0.120215
 C         2.082900        -0.032538        -1.438293
 C         3.302889         0.593020        -0.778981
 C         3.766420        -0.406297         0.469124
 C         2.452245        -0.132432         1.131999
 O         2.026774        -0.454289         2.403073
 C         2.290305         1.143083         0.426898
 O         1.792369         2.331708         0.999313
 H        -0.146883         0.078025         1.449373
 H        -0.483271         1.112393         0.135631
 H        -0.575228        -0.634169        -0.234918
 H         2.386716        -1.128348        -1.799424
 H         1.611200         0.509416        -2.232718
 H         4.113116         1.197163        -1.154371
 H         4.043415        -1.398347         0.010058
 H         4.516752         0.058853         1.126406
 H         1.705252        -1.410847         2.381133
 H         1.357046         2.597126         0.130926
