19
Iteration:   956
 C        -0.139232        -0.436956         0.269068
 C         1.398291        -0.177414         0.081757
 C         2.390430        -1.050905        -0.652857
 C         3.368041         0.092363        -0.495956
 C         3.793983        -0.035576         0.939894
 C         2.329248         0.294049         1.240881
 O         1.598342         0.958413         2.232122
 C         2.251371         1.029844        -0.023047
 O         2.038945         2.342374        -0.030427
 H        -0.551923        -0.178679         1.239150
 H        -0.679331         0.238034        -0.377193
 H        -0.435039        -1.467548         0.035509
 H         2.525024        -2.046314        -0.144663
 H         2.149047        -1.152324        -1.692542
 H         4.318027         0.081070        -1.248736
 H         4.351399        -0.911567         1.299072
 H         4.383139         0.900698         1.247383
 H         2.167077         1.718950         2.604787
 H         1.068878         2.393692         0.059750
