19
Iteration:  1318
 C        -0.075317        -0.462053         0.122523
 C         1.414274        -0.257649         0.178198
 C         2.412355        -0.926972        -0.855778
 C         3.419503         0.123684        -0.385390
 C         3.707489        -0.123171         1.113973
 C         2.402672         0.547044         1.376364
 O         1.904944         0.900780         2.628335
 C         2.187415         1.066527        -0.026163
 O         1.691974         2.267047        -0.500371
 H        -0.680741         0.430012         0.427380
 H        -0.255037        -0.745406        -0.933183
 H        -0.392750        -1.268170         0.792843
 H         2.587015        -1.932910        -0.782936
 H         1.943742        -0.631456        -1.795073
 H         4.233976         0.240613        -1.043181
 H         3.605313        -1.163835         1.449505
 H         4.661470         0.435437         1.425247
 H         1.102788         0.345234         2.770400
 H         2.222608         2.974126        -0.072205
