19
Iteration:  3534charge 0 multiplicity 1
 C        -0.265451        -0.259121         0.072307
 C         1.403550        -0.260992         0.181229
 C         2.236628        -0.790111        -1.037482
 C         3.321706         0.282491        -0.639630
 C         3.748399        -0.164815         0.730957
 C         2.401402         0.227766         1.302541
 O         2.101502         0.443664         2.703494
 C         2.218296         1.172517         0.107167
 O         1.790223         2.514857         0.153477
 H        -0.752852         0.479809         0.767700
 H        -0.513320        -0.238305        -0.986784
 H        -0.716369        -1.233203         0.412520
 H         2.525915        -1.860005        -0.927534
 H         1.788088        -0.595514        -2.034684
 H         4.071492         0.724584        -1.362140
 H         3.988664        -1.301662         0.770870
 H         4.545076         0.401193         1.167052
 H         2.829678        -0.025022         3.182364
 H         1.394862         2.790430        -0.710360
