19
Iteration:  3226charge 0 multiplicity 1
 C        -0.043609        -0.455054         0.432661
 C         1.336063        -0.143707         0.074789
 C         2.206671        -0.781979        -1.037231
 C         3.324907         0.186322        -0.611671
 C         3.759404        -0.202736         0.790410
 C         2.387250         0.278143         1.217372
 O         2.059337         0.508853         2.688304
 C         2.163605         1.186912         0.034776
 O         1.832494         2.570786        -0.042910
 H        -0.787082        -0.145315        -0.378947
 H        -0.314442        -1.502549         0.720134
 H        -0.317182         0.122000         1.338479
 H         2.263200        -1.878285        -0.841861
 H         1.724761        -0.676570        -2.033534
 H         4.085953         0.426919        -1.333229
 H         3.996145        -1.257262         1.066541
 H         4.546174         0.357788         1.182870
 H         1.081451         0.614672         2.679204
 H         2.049306         2.824620        -0.954982
