19
Iteration:  2260charge 0 multiplicity 1
 C        -0.133086        -0.390346         0.463098
 C         1.409520        -0.244206         0.183035
 C         2.372141        -1.055112        -0.795707
 C         3.507438         0.077986        -0.507979
 C         3.777421        -0.164570         1.028206
 C         2.422947         0.484225         1.230381
 O         1.848491         1.056864         2.354279
 C         2.175473         0.970522        -0.101929
 O         1.679542         2.273094        -0.233659
 H        -0.218500        -0.104269         1.557716
 H        -0.616953         0.413888        -0.151303
 H        -0.558324        -1.403903         0.300690
 H         2.797503        -1.949335        -0.289142
 H         1.953316        -1.378015        -1.799832
 H         4.446651         0.363643        -1.041402
 H         4.108836        -1.227591         1.157448
 H         4.604747         0.585194         1.375610
 H         1.905673         2.035140         2.427893
 H         0.942632         2.218010        -0.888917
