19
Iteration:  2157charge 0 multiplicity 1
 C        -0.079452        -0.474655         0.529548
 C         1.378995        -0.116860         0.252003
 C         2.232711        -1.001903        -0.645527
 C         3.351481         0.099304        -0.483705
 C         3.756627         0.019174         0.965993
 C         2.384635         0.571316         1.250527
 O         1.831851         0.562409         2.644460
 C         2.173074         1.157721        -0.198571
 O         1.913520         2.383724        -0.660044
 H        -0.773828         0.373654         0.574970
 H        -0.347146        -1.169075        -0.280361
 H        -0.099030        -1.059108         1.510471
 H         2.410315        -2.046197        -0.308958
 H         1.770420        -0.995697        -1.626147
 H         4.262419         0.290924        -1.094713
 H         4.102527        -0.810818         1.486332
 H         4.593340         0.825749         0.882091
 H         2.498411         1.086052         3.143132
 H         1.475663         2.290986        -1.515615
