19
Iteration:  1937
 C        -0.075795        -0.324031         0.528385
 C         1.415129        -0.253036         0.163583
 C         2.315176        -1.017119        -0.787827
 C         3.360138         0.125517        -0.466882
 C         3.806589         0.019909         0.957548
 C         2.409212         0.476678         1.363636
 O         1.881173         0.737384         2.551312
 C         2.097874         1.007434        -0.045799
 O         1.814037         2.317076        -0.604620
 H        -0.548300         0.579610         0.966162
 H        -0.636886        -0.694428        -0.318781
 H        -0.089001        -1.190104         1.199961
 H         2.659919        -2.036909        -0.554795
 H         2.009152        -1.125444        -1.826886
 H         4.049112         0.284141        -1.382334
 H         4.037872        -0.959888         1.279833
 H         4.557673         0.877115         1.344160
 H         2.255875         1.567085         2.847138
 H         0.841780         2.372363        -0.689406
