19
Iteration:   516
 C        -0.130996        -0.549522         0.450190
 C         1.338584        -0.204737         0.068150
 C         2.390805        -0.966920        -0.874808
 C         3.409718         0.107094        -0.537126
 C         3.724529        -0.186586         1.109656
 C         2.291258         0.392183         1.239444
 O         1.511997         0.865584         2.300163
 C         2.268857         1.109317        -0.004181
 O         2.137436         2.474467        -0.284774
 H        -0.483569         0.261841         1.170780
 H        -0.841575        -0.599894        -0.406208
 H        -0.027065        -1.438364         1.119100
 H         2.785335        -2.070928        -0.569156
 H         2.100384        -0.930921        -1.926479
 H         4.309771         0.492523        -1.100900
 H         3.888028        -1.184474         1.499308
 H         4.441099         0.559333         1.484594
 H         2.013884         1.070829         3.069364
 H         2.101383         2.966507         0.548078
