19
Iteration:  2035
 C        -0.133419        -0.514698         0.267117
 C         1.328674        -0.372598         0.266870
 C         2.318233        -1.122276        -0.601337
 C         3.249171         0.111319        -0.630356
 C         3.780671         0.031070         0.955906
 C         2.404662         0.445180         1.322568
 O         2.029801         1.006835         2.513941
 C         2.050314         1.017233        -0.036238
 O         1.881152         2.394824        -0.337387
 H        -0.762520        -0.072346         1.111921
 H        -0.463811        -0.097784        -0.754886
 H        -0.284185        -1.610967         0.176792
 H         2.766899        -2.109195        -0.308946
 H         1.955087        -1.366731        -1.621504
 H         4.123313         0.317780        -1.400141
 H         4.166233        -0.864459         1.243594
 H         4.479043         0.920058         1.247215
 H         2.390535         1.894498         2.631951
 H         1.274582         2.396027        -1.106359
