19
Iteration:   823charge 0 multiplicity 1
 C        -0.002495        -0.015438         0.403643
 C         1.432550        -0.165920         0.124725
 C         2.414068        -1.064942        -0.590010
 C         3.476723         0.067117        -0.492905
 C         3.771358         0.068551         1.022500
 C         2.253695         0.273368         1.315200
 O         1.630492         0.323328         2.550505
 C         2.217760         1.129053        -0.056257
 O         1.816371         2.418646        -0.698880
 H        -0.293870         1.009742         0.295336
 H        -0.543817        -0.542658        -0.376863
 H        -0.325414        -0.475894         1.340111
 H         2.802699        -1.815793         0.055401
 H         2.305941        -1.354338        -1.601033
 H         4.211035         0.304772        -1.283444
 H         4.335804        -0.837300         1.323950
 H         4.282759         0.959150         1.491694
 H         1.821040         1.236440         2.952678
 H         1.678874         3.093906         0.006416
