19
Iteration:  3729charge 0 multiplicity 1
 C        -0.100272        -0.162268         0.311261
 C         1.389648        -0.131832        -0.004042
 C         2.252951        -0.653485        -1.107007
 C         3.460599         0.235597        -0.665109
 C         3.802382        -0.238150         0.656427
 C         2.378965         0.112396         1.202162
 O         2.007420         0.383042         2.554709
 C         2.181923         1.176233         0.133470
 O         1.701377         2.456319         0.412145
 H        -0.274560         0.256727         1.325942
 H        -0.741369         0.402049        -0.477486
 H        -0.514448        -1.144089         0.227828
 H         2.395037        -1.730800        -1.157778
 H         1.800102        -0.356141        -2.056699
 H         4.170822         0.519556        -1.494196
 H         4.084182        -1.299181         0.700853
 H         4.605042         0.420666         1.181686
 H         1.626493        -0.439234         2.959081
 H         1.318942         2.846090        -0.411271
