19
Iteration:   622charge 0 multiplicity 1
 C        -0.029304        -0.214626         0.055526
 C         1.432438        -0.105755         0.224591
 C         2.353361        -0.822593        -0.702495
 C         3.432583         0.050223        -0.350828
 C         3.712910        -0.186294         1.103446
 C         2.393417         0.422938         1.418923
 O         1.805432         0.615566         2.650741
 C         2.246855         1.141635         0.013708
 O         1.617981         2.268628        -0.650525
 H        -0.678650         0.555057         0.509158
 H        -0.106395        -0.291618        -1.026794
 H        -0.338898        -1.195712         0.396482
 H         2.559523        -1.833479        -0.781743
 H         2.045986        -0.486771        -1.781640
 H         4.353430         0.241719        -1.034350
 H         3.732802        -1.304652         1.449488
 H         4.525479         0.375241         1.558219
 H         2.505910         0.631977         3.310790
 H         2.303060         2.703363        -1.182672
