19
Iteration:  1988charge 0 multiplicity 1
 C        -0.010265        -0.425254         0.585246
 C         1.466812        -0.147255         0.215381
 C         2.284709        -1.016161        -0.741268
 C         3.367739         0.045111        -0.462444
 C         3.844244        -0.016135         1.014974
 C         2.404442         0.599981         1.305901
 O         1.780040         0.661427         2.514750
 C         2.187409         1.133978        -0.131863
 O         1.720734         2.317371        -0.629323
 H         0.070626         0.154295         1.529932
 H        -0.815235         0.160907         0.014536
 H        -0.291693        -1.458063         0.768387
 H         2.426146        -2.109793        -0.528662
 H         1.892174        -0.976047        -1.784636
 H         4.130429         0.347459        -1.212772
 H         3.977024        -1.006509         1.532555
 H         4.641148         0.640100         1.155036
 H         2.302190         1.334857         2.970392
 H         1.307749         2.132076        -1.480483
