19
Iteration:  1342
 C        -0.057033        -0.503584         0.135650
 C         1.392808        -0.245934         0.218735
 C         2.352440        -0.935592        -0.838937
 C         3.410597         0.224530        -0.476691
 C         3.782910        -0.115383         1.050347
 C         2.296603         0.308605         1.411000
 O         1.849775         0.947596         2.591980
 C         2.252670         1.083285         0.066862
 O         1.865046         2.281685        -0.472816
 H        -0.675943         0.406177         0.298300
 H        -0.231278        -0.976190        -0.859260
 H        -0.376866        -1.075402         1.013085
 H         2.388446        -1.932705        -0.461563
 H         1.897147        -0.732793        -1.821704
 H         4.099724         0.468517        -1.354439
 H         4.070509        -1.166114         1.242254
 H         4.450791         0.736889         1.354954
 H         0.919629         1.112117         2.509159
 H         1.060312         2.672766        -0.057533
