19
Iteration:  3027
 C        -0.089609        -0.364867         0.457226
 C         1.380794        -0.258043         0.047417
 C         2.318281        -0.888259        -0.964928
 C         3.335180         0.229912        -0.610815
 C         3.799861        -0.130428         0.831877
 C         2.363956         0.345540         1.242534
 O         1.968423         0.540735         2.579775
 C         2.130609         1.145104         0.029161
 O         1.770765         2.453332        -0.025924
 H        -0.429030        -1.116958         1.233377
 H        -0.563273         0.686172         0.646636
 H        -0.689353        -0.604734        -0.468112
 H         2.653644        -1.955966        -0.686848
 H         2.038699        -0.910570        -2.062955
 H         4.035439         0.433903        -1.422233
 H         4.061911        -1.228563         1.092690
 H         4.528303         0.565303         1.134198
 H         1.884429         1.484915         2.800779
 H         1.981883         2.759079        -0.935150
