19
Iteration:  2932charge 0 multiplicity 1
 C         0.006501        -0.439950         0.507316
 C         1.408838        -0.149230         0.067372
 C         2.293433        -0.893542        -0.885103
 C         3.381913         0.200588        -0.622589
 C         3.804779        -0.165821         0.892859
 C         2.341306         0.307864         1.240360
 O         1.776310         0.620141         2.487057
 C         2.144611         1.172045        -0.022942
 O         1.767087         2.460276        -0.179730
 H        -0.643933        -0.595903        -0.384193
 H        -0.196648        -1.316223         1.080907
 H        -0.524293         0.303228         1.077323
 H         2.535872        -1.936337        -0.780426
 H         1.999165        -0.664240        -1.932508
 H         4.170619         0.443999        -1.318757
 H         3.962591        -1.208194         1.045465
 H         4.580686         0.523757         1.413809
 H         2.575711         0.789728         3.041408
 H         2.454965         2.962205         0.277053
