19
Iteration:  2964
 C        -0.163670        -0.551520         0.318685
 C         1.321033        -0.258867         0.097264
 C         2.268871        -0.891055        -0.921376
 C         3.369324         0.213777        -0.653816
 C         3.785393        -0.109862         0.866633
 C         2.355363         0.269993         1.206502
 O         1.935561         0.814098         2.565617
 C         2.147916         1.074580         0.015336
 O         1.887384         2.456806        -0.021204
 H        -0.453770        -1.309880        -0.446505
 H        -0.506134        -0.809748         1.324520
 H        -0.677393         0.325604        -0.029732
 H         2.521532        -1.941751        -0.765322
 H         1.905417        -0.571246        -1.889593
 H         4.072933         0.352643        -1.458495
 H         4.205066        -1.161974         1.075384
 H         4.611716         0.524778         1.351442
 H         2.594789         1.520681         2.635370
 H         1.744130         2.744240         0.915397
