19
Iteration:  2969charge 0 multiplicity 1
 C        -0.193298        -0.546649         0.277291
 C         1.310773        -0.233832         0.104553
 C         2.280556        -0.906159        -0.904312
 C         3.365420         0.210817        -0.625005
 C         3.827217        -0.115442         0.853877
 C         2.372396         0.261189         1.247355
 O         1.941989         0.819795         2.565480
 C         2.134038         1.065400        -0.000559
 O         1.896741         2.469158         0.000184
 H        -0.313705        -1.416924        -0.370880
 H        -0.367189        -0.802903         1.339012
 H        -0.689789         0.335683        -0.227391
 H         2.372729        -2.030579        -0.970925
 H         1.755204        -0.681919        -1.880910
 H         4.058139         0.320557        -1.496700
 H         4.123363        -1.119706         1.039918
 H         4.592250         0.609823         1.116012
 H         2.553848         1.583131         2.670841
 H         1.529480         2.729347         0.870492
