19
Iteration:  2948
 C        -0.093460        -0.491200         0.390783
 C         1.369754        -0.215178         0.158321
 C         2.317520        -0.837990        -0.948789
 C         3.322526         0.237849        -0.550855
 C         3.693268        -0.152224         0.890538
 C         2.320498         0.290727         1.234145
 O         1.921136         0.721432         2.426456
 C         2.186068         1.094109        -0.039497
 O         1.841150         2.422331        -0.082925
 H        -0.543751        -1.061712        -0.428243
 H        -0.066549        -1.145421         1.330729
 H        -0.620689         0.493216         0.568984
 H         2.699878        -1.898155        -0.769283
 H         1.827256        -0.986157        -1.943696
 H         4.083544         0.689071        -1.232594
 H         3.985664        -1.230158         1.118999
 H         4.373054         0.602645         1.230300
 H         2.621447         1.205834         2.910743
 H         2.240629         2.888785         0.667406
