19
Iteration:    10charge 0 multiplicity 1
 C        -0.165413        -0.369257         0.238241
 C         1.408634        -0.160441         0.153344
 C         2.370703        -1.036046        -0.783752
 C         3.411812         0.090764        -0.444745
 C         3.765509        -0.083939         1.090099
 C         2.357324         0.382477         1.364867
 O         1.704582         0.863349         2.471262
 C         2.215592         1.075601         0.001015
 O         1.971213         2.367576        -0.447019
 H        -0.732616         0.305986         0.853332
 H        -0.682219        -0.417111        -0.722524
 H        -0.201853        -1.322942         0.729968
 H         2.780087        -2.153608        -0.691708
 H         1.868193        -0.844775        -1.720083
 H         4.174133         0.243406        -1.276332
 H         4.033646        -1.130333         1.163456
 H         4.528618         0.652171         1.341351
 H         1.072504         0.206024         2.788320
 H         2.177840         2.956532         0.283309
