19
Iteration:  2323
 C        -0.089627        -0.663627         0.473662
 C         1.301093        -0.197505         0.197782
 C         2.233432        -1.011850        -0.650148
 C         3.317449         0.047715        -0.533663
 C         3.837218         0.052976         0.958881
 C         2.342409         0.562070         1.240792
 O         1.888117         0.803656         2.532021
 C         2.071292         1.115260        -0.071712
 O         2.057628         2.440889        -0.479171
 H        -0.478020        -0.483221         1.491093
 H        -0.785135        -0.160940        -0.179949
 H        -0.309043        -1.765517         0.260870
 H         2.563925        -1.899635        -0.074053
 H         1.755560        -1.278761        -1.577915
 H         4.131572         0.243318        -1.249772
 H         4.353162        -0.813791         1.234892
 H         4.624234         0.866869         1.313136
 H         0.955939         1.151037         2.575045
 H         2.102428         2.349729        -1.456933
