19
Iteration:  3651charge 0 multiplicity 1
 C        -0.086503        -0.398760         0.360276
 C         1.348325        -0.069638         0.076953
 C         2.153263        -0.639894        -1.138604
 C         3.379142         0.358345        -0.611773
 C         3.754085        -0.277013         0.834122
 C         2.432392         0.273643         1.262147
 O         2.004691         0.211118         2.596293
 C         2.147112         1.229336         0.119247
 O         1.922916         2.593144         0.046156
 H        -0.355146        -1.372844         0.084935
 H        -0.110606        -0.303080         1.474386
 H        -0.837565         0.142473        -0.092550
 H         2.100453        -1.716880        -1.195230
 H         1.712471        -0.261804        -2.068467
 H         4.102274         0.899631        -1.290093
 H         3.810551        -1.334286         0.858961
 H         4.512703         0.198859         1.590012
 H         1.637073        -0.697716         2.735456
 H         1.265342         2.839672        -0.621056
