19
Iteration:  4161charge 0 multiplicity 1
 C        -0.066087        -0.212545         0.413218
 C         1.396120         0.007691         0.005192
 C         2.161808        -0.303239        -1.285763
 C         3.342919         0.453003        -0.674966
 C         3.845191        -0.405390         0.651332
 C         2.444854        -0.010620         1.225210
 O         1.887866        -0.052159         2.455823
 C         2.221758         1.186264         0.399726
 O         1.757359         2.583549         0.315589
 H        -0.279598         0.353728         1.315408
 H        -0.689493         0.237162        -0.365715
 H        -0.451703        -1.255611         0.618763
 H         2.221697        -1.348478        -1.604622
 H         1.753589         0.365943        -2.056461
 H         3.969796         0.835745        -1.463731
 H         3.998659        -1.553739         0.463882
 H         4.684124        -0.002904         1.124560
 H         2.140709        -0.955736         2.651731
 H         2.365515         3.199626         0.752377
