19
Iteration:  2786
 C        -0.014085        -0.332660         0.421707
 C         1.405185        -0.197144         0.086184
 C         2.353243        -0.956379        -0.876949
 C         3.358399         0.177645        -0.541968
 C         3.766984        -0.109143         0.921603
 C         2.387926         0.273861         1.203674
 O         1.820883         0.746186         2.420350
 C         2.161086         1.065015        -0.009452
 O         1.709892         2.378734        -0.121003
 H        -0.430334        -0.855255         1.274443
 H        -0.539291         0.686803         0.461335
 H        -0.555281        -0.838018        -0.364254
 H         2.615608        -2.028426        -0.714550
 H         2.037006        -0.900567        -1.933884
 H         4.174438         0.489532        -1.212004
 H         3.947435        -1.184862         1.235604
 H         4.575025         0.525848         1.253957
 H         2.583591         1.237802         2.736616
 H         2.261760         2.782566         0.581462
