19
Iteration:  2112
 C         0.018677        -0.384324         0.694810
 C         1.442687        -0.261761         0.171160
 C         2.380524        -1.012330        -0.844328
 C         3.435464         0.047901        -0.588365
 C         3.742079        -0.045106         0.952594
 C         2.326398         0.389945         1.278014
 O         1.720735         0.935101         2.392178
 C         2.135549         1.006213        -0.120840
 O         1.827789         2.330905        -0.311339
 H        -0.424855         0.636096         0.709461
 H        -0.500648        -1.030545        -0.040111
 H        -0.006927        -0.821046         1.701218
 H         2.797956        -1.981989        -0.486155
 H         1.966069        -1.102900        -1.836173
 H         4.131179         0.458853        -1.423433
 H         3.845786        -1.058031         1.181365
 H         4.636860         0.396092         1.477990
 H         1.978881         1.877944         2.520596
 H         1.217491         2.454150        -1.048108
