19
Iteration:  4494charge 0 multiplicity 1
 C        -0.270409        -0.172613         0.084798
 C         1.283968        -0.073996        -0.046566
 C         2.166201        -0.216408        -1.304331
 C         3.265599         0.538202        -0.667523
 C         3.675360        -0.323731         0.461556
 C         2.408288        -0.046188         1.083081
 O         2.090262        -0.121746         2.532436
 C         2.183169         1.202875         0.330990
 O         2.049626         2.527192         0.851801
 H        -0.541156        -0.597167        -0.946241
 H        -0.665337        -0.920358         0.843409
 H        -0.707597         0.836801         0.184927
 H         2.541143        -1.297875        -1.572401
 H         1.469826         0.236342        -2.064375
 H         4.206603         0.894524        -1.075121
 H         3.939245        -1.344730         0.244587
 H         4.553316         0.207906         0.939800
 H         2.533709        -1.011116         2.733283
 H         2.090996         2.571025         1.857594
