19
Iteration:  1521
 C        -0.076614        -0.266553         0.328804
 C         1.417372        -0.253990         0.202795
 C         2.433820        -1.070593        -0.693775
 C         3.386360         0.071435        -0.565588
 C         3.855820         0.091732         1.003592
 C         2.383748         0.355281         1.298569
 O         1.795839         0.913822         2.457926
 C         2.171385         0.973531        -0.042261
 O         1.788534         2.263166        -0.368530
 H        -0.505660         0.189264         1.212667
 H        -0.541837         0.194161        -0.584994
 H        -0.351307        -1.350250         0.346457
 H         2.733083        -2.110749        -0.449446
 H         1.983439        -1.091801        -1.689206
 H         4.063472         0.244938        -1.304401
 H         4.560910        -0.716564         1.522511
 H         4.294253         1.130450         1.188166
 H         0.881801         0.568575         2.480586
 H         0.876043         2.273406         0.028439
