19
Iteration:  2764charge 0 multiplicity 1
 C        -0.134562        -0.507576         0.507436
 C         1.327273        -0.276463         0.129155
 C         2.329892        -0.857942        -0.872401
 C         3.461816         0.167591        -0.602310
 C         3.745035        -0.081367         0.965701
 C         2.291227         0.277005         1.170927
 O         1.785154         0.759230         2.448524
 C         2.222111         1.093665        -0.126379
 O         1.906127         2.479827        -0.187217
 H        -0.246286        -1.520849         0.985955
 H        -0.508575         0.216787         1.323597
 H        -0.879259        -0.566298        -0.295327
 H         2.574641        -1.956959        -0.756463
 H         1.997206        -0.717432        -1.914024
 H         4.156828         0.317022        -1.436129
 H         4.215570        -1.025635         1.330535
 H         4.299824         0.778020         1.346449
 H         2.551663         1.083566         2.984805
 H         2.057165         2.761924         0.742473
