19
Iteration:  2073
 C        -0.045328        -0.467702         0.418124
 C         1.389261        -0.182249         0.189601
 C         2.285003        -1.097428        -0.713767
 C         3.425944         0.002629        -0.609234
 C         3.824576        -0.015684         0.949558
 C         2.370347         0.331586         1.220679
 O         1.959329         1.090608         2.351261
 C         2.137852         1.029651        -0.029691
 O         1.745322         2.334782        -0.110839
 H        -0.668692         0.317757         0.796255
 H        -0.461696        -0.695670        -0.553372
 H        -0.261171        -1.384641         1.024478
 H         2.416418        -2.068467        -0.217740
 H         1.934510        -1.223173        -1.770971
 H         4.073617        -0.159234        -1.408389
 H         4.264608        -1.020944         1.465045
 H         4.305072         0.892052         1.342921
 H         1.404672         1.775665         1.902738
 H         1.273004         2.530429        -0.954027
