19
Iteration:  4119
 C        -0.171652        -0.161033         0.212895
 C         1.266067        -0.026533        -0.064019
 C         2.199039        -0.481085        -1.245625
 C         3.283227         0.401041        -0.711339
 C         3.808067        -0.283297         0.603930
 C         2.479514         0.084144         1.197533
 O         2.109979         0.001813         2.599822
 C         2.162609         1.179123         0.263684
 O         1.827462         2.533304         0.500668
 H        -0.398798        -0.862272         1.044697
 H        -0.697565         0.810691         0.245505
 H        -0.585718        -0.647565        -0.689343
 H         2.520176        -1.517793        -1.321789
 H         1.873915        -0.178599        -2.234775
 H         3.898934         0.985069        -1.325869
 H         4.116616        -1.382373         0.751224
 H         4.534406         0.275051         1.138013
 H         1.306021        -0.444310         2.955024
 H         2.316327         2.812103         1.332573
