19
Iteration:  4709
 C        -0.080103        -0.122777         0.294274
 C         1.336880         0.154000        -0.122404
 C         2.074210        -0.097431        -1.456007
 C         3.344354         0.601239        -0.699614
 C         3.753153        -0.420614         0.444619
 C         2.503545        -0.106979         1.146362
 O         1.884785        -0.315357         2.398319
 C         2.287219         1.177678         0.422354
 O         1.886203         2.451209         0.880478
 H        -0.824023         0.219275        -0.459886
 H        -0.312754        -1.054208         0.815660
 H        -0.301563         0.647272         1.065892
 H         2.223914        -1.176457        -1.804224
 H         1.942397         0.672230        -2.189089
 H         4.145620         1.275447        -0.976991
 H         3.939344        -1.504370         0.102140
 H         4.622124         0.008325         0.879157
 H         1.394666        -1.154268         2.642004
 H         2.404266         2.620990         1.700870
