19
Iteration:  3058charge 0 multiplicity 1
 C         0.022108        -0.257846         0.645426
 C         1.426299        -0.152099         0.094171
 C         2.246442        -0.776726        -0.982789
 C         3.382253         0.271912        -0.526748
 C         3.843170        -0.131441         0.856638
 C         2.336286         0.286652         1.249797
 O         1.846966         0.321929         2.555583
 C         2.185119         1.138298        -0.020112
 O         1.724468         2.405520        -0.266712
 H        -0.204562        -0.395565         1.693129
 H        -0.634749         0.667068         0.360832
 H        -0.492555        -1.122717         0.117685
 H         2.465600        -1.855227        -0.789284
 H         2.008652        -0.434619        -2.011481
 H         4.072720         0.395825        -1.387502
 H         4.305777        -1.042646         1.127664
 H         4.546223         0.558011         1.184270
 H         1.508784         1.180009         2.876466
 H         2.175320         2.822217        -1.016376
