19
Iteration:  3186
 C        -0.077803        -0.312007         0.513627
 C         1.389822        -0.191293         0.085369
 C         2.214727        -0.793829        -0.940206
 C         3.365070         0.221180        -0.641168
 C         3.845275        -0.176561         0.781529
 C         2.401417         0.185821         1.209429
 O         1.872343         0.590075         2.409064
 C         2.174739         1.070351         0.010920
 O         1.837053         2.420465         0.142213
 H        -0.564246         0.555689         0.082716
 H        -0.543299        -1.183843         0.174915
 H        -0.151362        -0.232647         1.633244
 H         2.641298        -1.791004        -0.894207
 H         1.794344        -0.689548        -1.944151
 H         4.161834         0.524178        -1.347059
 H         4.282236        -1.183975         0.747600
 H         4.479784         0.632338         1.157044
 H         1.916067         1.565051         2.381157
 H         1.075029         2.552097        -0.463460
