19
Iteration:   995
 C        -0.053673        -0.437537         0.352729
 C         1.356612        -0.309451         0.091264
 C         2.391827        -1.028949        -0.787702
 C         3.434009         0.017785        -0.509604
 C         3.627132         0.021850         1.017069
 C         2.233981         0.367338         1.257392
 O         1.701802         0.876178         2.408658
 C         2.225401         1.047279        -0.054104
 O         2.044484         2.437583        -0.105367
 H        -0.316081        -0.046339         1.351746
 H        -0.590995         0.024363        -0.526473
 H        -0.382082        -1.511982         0.386206
 H         2.709524        -2.063296        -0.658081
 H         2.107742        -0.986827        -1.909380
 H         4.271654         0.131697        -1.065580
 H         4.147843        -0.965411         1.276829
 H         4.298194         0.843213         1.194719
 H         1.036363         1.536756         2.207342
 H         2.391230         2.849878        -0.934492
