19
Iteration:  3258charge 0 multiplicity 1
 C        -0.132806        -0.518820         0.347064
 C         1.354139        -0.084958         0.212113
 C         2.098770        -0.671461        -0.916069
 C         3.298342         0.315239        -0.638718
 C         3.798458        -0.182864         0.795055
 C         2.379994         0.279365         1.329751
 O         2.129317         0.361452         2.687055
 C         2.140288         1.215132         0.074556
 O         1.989131         2.538851        -0.251337
 H        -0.499822        -0.692255        -0.695426
 H        -0.413484        -1.339733         1.082776
 H        -0.769766         0.331512         0.625483
 H         2.257229        -1.727975        -0.622752
 H         1.632333        -0.752979        -1.931477
 H         4.043794         0.650708        -1.325509
 H         3.815985        -1.281922         1.047539
 H         4.457458         0.580450         1.235335
 H         1.229278        -0.049862         2.732911
 H         1.326838         2.633755        -0.982331
