19
Iteration:  2450
 C        -0.153847        -0.304760         0.126618
 C         1.369580        -0.274724         0.136870
 C         2.353082        -1.059001        -0.687220
 C         3.381213         0.091095        -0.492915
 C         3.821097         0.022871         0.931763
 C         2.309760         0.393896         1.324908
 O         2.009214         0.844446         2.615242
 C         2.183714         1.026416        -0.034261
 O         1.709079         2.290633        -0.244769
 H        -0.724736        -0.356225        -0.923817
 H        -0.309094        -1.319557         0.613140
 H        -0.497084         0.481264         0.809059
 H         2.509583        -2.088825        -0.279061
 H         2.127504        -1.034179        -1.804007
 H         4.006307         0.194325        -1.373537
 H         4.396118        -0.882539         1.268831
 H         4.359399         0.868614         1.190899
 H         2.204385         1.791904         2.660571
 H         1.457784         2.402058        -1.175428
