19
Iteration:  1824charge 0 multiplicity 1
 C        -0.025489        -0.360419         0.693053
 C         1.361303        -0.209826         0.113170
 C         2.329459        -1.049229        -0.808621
 C         3.386220         0.124995        -0.558266
 C         3.832896        -0.072955         0.988807
 C         2.482706         0.450404         1.265343
 O         1.715299         0.813118         2.394436
 C         2.204313         1.010747        -0.064352
 O         1.802825         2.339406        -0.344834
 H        -0.247724         0.399080         1.363775
 H        -0.702448        -0.407057        -0.175521
 H        -0.208047        -1.223713         1.245508
 H         2.589725        -2.091211        -0.597487
 H         1.749563        -1.137088        -1.724025
 H         4.016154         0.516675        -1.273364
 H         4.112443        -0.997842         1.539593
 H         4.642114         0.700272         0.969161
 H         1.214962         1.645754         2.208713
 H         1.884820         2.399826        -1.329711
