19
Iteration:  4305
 C        -0.048298        -0.160884         0.277261
 C         1.406376         0.038758        -0.068497
 C         2.095234        -0.301378        -1.361068
 C         3.320887         0.492361        -0.737423
 C         3.730080        -0.368328         0.547180
 C         2.368332        -0.101608         1.173033
 O         2.057923        -0.016754         2.573789
 C         2.229928         1.194738         0.272746
 O         1.824232         2.451394         0.683102
 H        -0.255219        -1.248462         0.388529
 H        -0.375706         0.325062         1.199320
 H        -0.690616         0.105090        -0.545172
 H         2.188138        -1.406987        -1.537662
 H         1.945536         0.316345        -2.254405
 H         4.015179         0.788315        -1.518856
 H         4.029126        -1.439121         0.365074
 H         4.574505         0.027161         1.021850
 H         1.206197         0.443677         2.540891
 H         2.223080         2.565040         1.586114
