19
Iteration:  4365
 C        -0.062980        -0.150099         0.267377
 C         1.321907         0.027208        -0.020698
 C         2.105487        -0.258965        -1.241670
 C         3.191890         0.558611        -0.573292
 C         3.732583        -0.334540         0.597266
 C         2.367749        -0.016822         1.215993
 O         2.119086        -0.461383         2.487939
 C         2.166897         1.287279         0.377280
 O         1.955391         2.650999         0.381561
 H        -0.120560        -0.199445         1.359293
 H        -0.766935         0.597901        -0.130879
 H        -0.402771        -1.107817        -0.201510
 H         2.246498        -1.309955        -1.392101
 H         1.919347         0.113901        -2.222681
 H         3.778952         1.081673        -1.318141
 H         3.928629        -1.373189         0.341482
 H         4.529430         0.354215         1.067002
 H         1.306073        -0.661564         2.922801
 H         2.713436         3.068373         0.784855
