19
Iteration:  4555charge 0 multiplicity 1
 C        -0.114375        -0.384617         0.306037
 C         1.366320         0.055318        -0.080039
 C         2.011298        -0.106877        -1.356128
 C         3.332846         0.577828        -0.711637
 C         3.749941        -0.400623         0.498242
 C         2.417492        -0.038884         1.089295
 O         1.877179        -0.232032         2.420012
 C         2.258468         1.281183         0.327903
 O         2.136173         2.593848         0.825383
 H        -0.214979        -1.399002         0.773064
 H        -0.403228         0.344442         1.091451
 H        -0.907505        -0.448646        -0.467891
 H         2.250191        -1.072848        -1.891733
 H         1.424653         0.537793        -2.035339
 H         4.119609         1.126337        -1.379155
 H         3.901756        -1.535722         0.400656
 H         4.543745         0.030800         1.103456
 H         1.021169        -0.735518         2.368187
 H         2.002117         2.524328         1.817693
