19
Iteration:  3218charge 0 multiplicity 1
 C        -0.059679        -0.412066         0.505499
 C         1.343948        -0.165787         0.026180
 C         2.188155        -0.825526        -1.079509
 C         3.357928         0.175303        -0.668280
 C         3.748948        -0.192484         0.867115
 C         2.409282         0.286909         1.219237
 O         2.027995         0.532933         2.637265
 C         2.137583         1.153973         0.003049
 O         1.820008         2.535215         0.027492
 H        -0.821712         0.076567        -0.242759
 H        -0.195963        -1.445290         0.468108
 H        -0.181258         0.207912         1.449738
 H         2.714385        -1.832824        -0.915239
 H         1.561894        -0.593278        -1.958473
 H         4.254056         0.411449        -1.296477
 H         4.132079        -1.224792         0.928896
 H         4.524060         0.428939         1.280805
 H         1.093670         0.810195         2.635290
 H         2.039612         2.796514        -0.881145
