19
Iteration:  1892charge 0 multiplicity 1
 C        -0.169551        -0.563753         0.204622
 C         1.364502        -0.145020         0.205640
 C         2.304458        -1.021625        -0.548960
 C         3.289925         0.109327        -0.592352
 C         3.861014        -0.098589         0.904880
 C         2.403385         0.362881         1.317468
 O         2.003909         0.954820         2.533305
 C         2.073549         1.076259        -0.021668
 O         1.822746         2.361978        -0.356171
 H        -0.694960         0.387188         0.189475
 H        -0.321498        -1.245559        -0.596662
 H        -0.430215        -0.989722         1.145569
 H         2.606101        -2.010426        -0.196931
 H         1.815373        -1.223259        -1.489727
 H         4.131222         0.402604        -1.266283
 H         4.264969        -1.059265         1.127279
 H         4.640131         0.772899         1.060967
 H         2.556174         1.728425         2.624803
 H         0.879071         2.510436        -0.495564
