19
Iteration:   805charge 0 multiplicity 1
 C        -0.076749        -0.172750         0.280502
 C         1.459417        -0.151686         0.192546
 C         2.379539        -1.088449        -0.645057
 C         3.412035         0.160732        -0.457465
 C         3.800065        -0.035361         1.049776
 C         2.385086         0.491113         1.300625
 O         1.622969         0.524471         2.462310
 C         2.254161         1.084763        -0.120121
 O         1.817835         2.318474        -0.506231
 H        -0.386251         0.913787         0.291193
 H        -0.605921        -0.706541        -0.544561
 H        -0.492753        -0.613025         1.238287
 H         2.786104        -2.095179        -0.283313
 H         1.963692        -1.199327        -1.670893
 H         4.259287         0.266751        -1.228519
 H         3.976797        -1.042657         1.492074
 H         4.637448         0.690110         1.302796
 H         2.150139         1.001600         3.180683
 H         1.488107         2.800597         0.270975
