19
Iteration:  2428
 C        -0.116158        -0.226160         0.193673
 C         1.389529        -0.332768         0.221622
 C         2.316839        -1.070899        -0.754198
 C         3.428736         0.123007        -0.522700
 C         3.804179        -0.036117         1.028338
 C         2.428219         0.439834         1.342348
 O         2.029669         0.807036         2.564615
 C         2.131438         1.003068        -0.017846
 O         1.640103         2.296635        -0.347554
 H        -0.345317         0.521402        -0.685920
 H        -0.505930        -1.225470        -0.108727
 H        -0.459662         0.169964         1.146825
 H         2.796675        -1.986060        -0.326746
 H         2.027341        -1.291880        -1.817851
 H         4.155530         0.467556        -1.245069
 H         4.045703        -0.953949         1.616030
 H         4.453102         0.700322         1.258024
 H         1.673741         1.726682         2.511714
 H         1.050895         2.377144        -1.136591
