19
Iteration:  1546charge 0 multiplicity 1
 C        -0.087678        -0.307028         0.473170
 C         1.441221        -0.342295         0.170765
 C         2.433386        -1.095366        -0.752343
 C         3.455389         0.131910        -0.479580
 C         3.830913         0.056870         1.077872
 C         2.307902         0.403077         1.189075
 O         1.799379         0.919897         2.345969
 C         2.175885         1.022669        -0.129603
 O         1.742685         2.298792        -0.248562
 H        -0.200993         0.456220         1.241646
 H        -0.542353        -0.009382        -0.426283
 H        -0.523312        -1.174459         0.905632
 H         2.605787        -2.166199        -0.532637
 H         1.914231        -1.040637        -1.739919
 H         4.362858         0.228008        -1.186177
 H         4.341913        -0.901216         1.344253
 H         4.371251         0.887240         1.367448
 H         1.031227         0.437523         2.647110
 H         1.482406         2.321906        -1.202629
