19
Iteration:  4775
 C        -0.136234        -0.420663         0.049242
 C         1.213546         0.223423        -0.071713
 C         2.041810         0.027866        -1.359272
 C         3.193609         0.650002        -0.626165
 C         3.682405        -0.351987         0.454332
 C         2.393755        -0.045279         1.182045
 O         2.023274        -0.414649         2.514787
 C         2.176952         1.244580         0.416196
 O         2.305219         2.524201         0.828884
 H        -0.212901        -1.504072        -0.094112
 H        -0.650547        -0.122702         0.978214
 H        -0.682915         0.036014        -0.800075
 H         1.859642        -1.047746        -1.532625
 H         1.638822         0.755960        -2.005623
 H         3.811704         1.239419        -1.240694
 H         3.764338        -1.454207         0.200550
 H         4.535633         0.092758         0.886655
 H         1.599006        -1.258829         2.409436
 H         2.507858         2.533225         1.764336
