19
Iteration:  1940
 C        -0.084424        -0.307836         0.589634
 C         1.412001        -0.258109         0.139142
 C         2.328005        -1.006263        -0.781479
 C         3.375755         0.138458        -0.474865
 C         3.806319         0.012839         0.947936
 C         2.397779         0.465416         1.338354
 O         1.853249         0.729581         2.558849
 C         2.126943         1.021334        -0.043175
 O         1.813829         2.309932        -0.620545
 H        -0.518631         0.590641         1.037378
 H        -0.539328        -0.646823        -0.325332
 H        -0.169361        -1.242838         1.195268
 H         2.670892        -2.012068        -0.499494
 H         2.085635        -1.100612        -1.862844
 H         3.991625         0.335707        -1.341113
 H         4.095521        -1.047922         1.254218
 H         4.513298         0.811797         1.333269
 H         2.218857         1.596714         2.869362
 H         0.829468         2.262925        -0.697114
