19
Iteration:   639charge 0 multiplicity 1
 C        -0.075682        -0.217204         0.190949
 C         1.489276        -0.104287         0.156561
 C         2.338704        -0.943794        -0.787728
 C         3.509231         0.164654        -0.370919
 C         3.702049        -0.145930         1.184159
 C         2.355966         0.518244         1.331294
 O         1.739449         0.582671         2.583622
 C         2.288564         1.187437         0.020353
 O         1.682634         2.207357        -0.648223
 H        -0.468087         0.469828         0.950484
 H        -0.609822         0.138569        -0.722974
 H        -0.421115        -1.270560         0.374785
 H         2.477751        -2.016177        -0.330436
 H         1.861275        -1.028174        -1.739320
 H         4.290870         0.375235        -1.041304
 H         3.759653        -1.189112         1.344477
 H         4.607033         0.362478         1.593723
 H         2.310503         0.030333         3.137823
 H         2.330668         2.948905        -0.666251
