19
Iteration:  2746charge 0 multiplicity 1
 C        -0.027453        -0.630629         0.489421
 C         1.351365        -0.147358         0.084086
 C         2.244509        -0.945407        -0.899340
 C         3.286386         0.141164        -0.532549
 C         3.758404        -0.027588         0.896268
 C         2.325455         0.408634         1.251305
 O         1.730668         0.733403         2.446587
 C         2.143997         1.118837        -0.008030
 O         2.075770         2.447645        -0.238905
 H        -0.051728        -1.763296         0.444386
 H        -0.213122        -0.314535         1.530089
 H        -0.729841        -0.180006        -0.213301
 H         2.504483        -1.965589        -0.623027
 H         1.849274        -0.844316        -1.930830
 H         4.096169         0.477566        -1.222812
 H         4.090382        -1.008501         1.107449
 H         4.614065         0.724926         1.138190
 H         2.407494         0.982563         3.116410
 H         1.731770         2.957871         0.517298
