19
Iteration:  3480
 C        -0.082336        -0.230680         0.494665
 C         1.433965        -0.160173         0.117480
 C         2.283721        -0.662185        -1.046894
 C         3.388825         0.286724        -0.640410
 C         3.796578        -0.243108         0.812183
 C         2.441243         0.200909         1.228573
 O         1.834914         0.371305         2.590382
 C         2.200969         1.111733         0.067474
 O         1.781403         2.542254        -0.085263
 H        -0.049327        -0.690369         1.525429
 H        -0.678297         0.636627         0.671760
 H        -0.605427        -0.864588        -0.244046
 H         2.619429        -1.700810        -1.059484
 H         1.899502        -0.316633        -2.005462
 H         4.224141         0.598982        -1.313050
 H         4.114099        -1.375160         0.866433
 H         4.552821         0.255308         1.290905
 H         1.740838        -0.527383         2.989444
 H         0.967313         2.702207        -0.623136
