19
Iteration:  2367
 C        -0.040191        -0.392189         0.609632
 C         1.424767        -0.226174         0.150022
 C         2.313526        -0.962472        -0.784340
 C         3.462066         0.109906        -0.448089
 C         3.680658        -0.040792         1.020421
 C         2.381502         0.495347         1.287538
 O         1.875151         0.714311         2.551750
 C         2.154950         1.071278        -0.130013
 O         1.846892         2.353812        -0.579612
 H        -0.364185         0.443610         1.236777
 H        -0.854943        -0.373733        -0.102308
 H        -0.326162        -1.327487         1.183689
 H         2.527289        -2.013820        -0.542962
 H         2.161407        -0.817395        -1.862137
 H         4.266360         0.326309        -1.189115
 H         3.777492        -0.975627         1.592899
 H         4.635875         0.675523         1.289012
 H         0.954194         1.031352         2.370902
 H         1.350600         2.254971        -1.426568
