19
Iteration:  4805charge 0 multiplicity 1
 C        -0.187448        -0.229619         0.193494
 C         1.302135         0.030163        -0.024525
 C         2.132658        -0.000045        -1.332885
 C         3.236697         0.693253        -0.624529
 C         3.719850        -0.458559         0.395555
 C         2.385578        -0.173244         1.031652
 O         2.017154        -0.350112         2.399558
 C         2.248510         1.218651         0.471913
 O         2.151731         2.595888         0.907039
 H        -0.613844        -1.080298         0.719455
 H        -0.588447         0.762946         0.532252
 H        -0.648992        -0.246449        -0.814588
 H         2.128321        -1.057874        -1.719259
 H         1.640385         0.686647        -2.114588
 H         3.846597         1.287534        -1.324299
 H         3.966037        -1.504896         0.083683
 H         4.558096        -0.109957         0.977441
 H         1.883353        -1.312363         2.588457
 H         1.289866         2.629552         1.439445
