19
Iteration:  4973charge 0 multiplicity 1
 C        -0.095870        -0.334389         0.316979
 C         1.298625         0.218250        -0.121290
 C         2.074313         0.102186        -1.466621
 C         3.224681         0.739416        -0.600328
 C         3.705690        -0.453991         0.264193
 C         2.400960        -0.102242         1.045728
 O         1.852298        -0.347143         2.315508
 C         2.277561         1.194762         0.496087
 O         2.210713         2.438597         1.059643
 H        -0.703718        -0.764486        -0.517808
 H         0.065333        -0.987848         1.163969
 H        -0.731845         0.454341         0.753564
 H         2.239465        -0.865928        -1.952547
 H         1.705099         0.754534        -2.224628
 H         3.917291         1.412378        -1.197147
 H         3.839047        -1.482970        -0.085209
 H         4.561799        -0.405989         0.916354
 H         1.666837        -1.282245         2.491279
 H         2.010888         2.295722         2.028324
