19
Iteration:  1573charge 0 multiplicity 1
 C         0.007921        -0.497372         0.433776
 C         1.434693        -0.175387         0.073786
 C         2.365187        -1.037510        -0.753771
 C         3.389993         0.117415        -0.488230
 C         3.763446        -0.102706         0.991658
 C         2.317231         0.455513         1.316655
 O         1.750817         0.951319         2.506084
 C         2.216551         1.109431        -0.054337
 O         1.720433         2.337288        -0.440227
 H        -0.424059         0.381998         0.942696
 H        -0.513544        -0.795713        -0.524034
 H        -0.029040        -1.265919         1.257942
 H         2.521780        -1.983464        -0.208062
 H         2.016828        -1.261921        -1.766172
 H         4.201471         0.328442        -1.162979
 H         3.992126        -1.124416         1.122454
 H         4.673871         0.556606         1.260726
 H         1.790543         0.316441         3.228499
 H         2.475848         2.782476        -0.876497
