19
Iteration:  1712charge 0 multiplicity 1
 C        -0.113534        -0.286851         0.383905
 C         1.432783        -0.291485         0.257191
 C         2.357860        -1.009811        -0.759108
 C         3.437493         0.152790        -0.463079
 C         3.835497        -0.064293         1.009130
 C         2.338748         0.415436         1.272491
 O         1.993657         0.946566         2.527672
 C         2.209958         0.984104        -0.133187
 O         1.609401         2.234163        -0.519702
 H        -0.448718         0.549994         1.031632
 H        -0.599143        -0.172395        -0.571573
 H        -0.571856        -1.097460         0.938837
 H         2.723412        -2.008206        -0.461982
 H         1.925373        -1.086496        -1.787185
 H         4.287933         0.250387        -1.281209
 H         4.426531        -1.040968         1.356731
 H         4.359339         0.824014         1.368841
 H         1.092045         0.576196         2.632211
 H         1.373593         2.488350         0.397477
