19
Iteration:   863
 C        -0.089759        -0.140673         0.377571
 C         1.410883        -0.138553         0.235364
 C         2.380990        -0.897565        -0.783595
 C         3.460590         0.192154        -0.375098
 C         3.711175         0.050353         1.105786
 C         2.331478         0.533910         1.384611
 O         1.739745         0.257841         2.614841
 C         2.178259         1.151471        -0.039530
 O         1.868433         2.193623        -0.788903
 H        -0.419322         0.893926         0.664169
 H        -0.558938        -0.286950        -0.611452
 H        -0.453565        -0.801375         1.161450
 H         2.664093        -2.009801        -0.758692
 H         1.965547        -0.607642        -1.865249
 H         4.216607         0.237673        -1.095960
 H         3.786591        -0.920053         1.605842
 H         4.442879         0.725471         1.465721
 H         1.525327         1.006660         3.138401
 H         2.690605         2.478329        -1.215842
