19
Iteration:  2860
 C        -0.112385        -0.123391         0.389431
 C         1.335282        -0.147091         0.169300
 C         2.423349        -0.864738        -1.018197
 C         3.357566         0.244717        -0.521867
 C         3.759032        -0.018010         0.926889
 C         2.337252         0.307083         1.404284
 O         2.038693         0.298578         2.805419
 C         2.168024         1.127595         0.042949
 O         1.676597         2.297636        -0.552478
 H        -0.702073         0.774721         0.597655
 H        -0.650435        -0.456440        -0.499857
 H        -0.579682        -0.930279         1.055832
 H         2.746456        -1.908138        -0.781466
 H         2.106812        -0.701346        -2.064824
 H         3.906829         0.597695        -1.388101
 H         3.997733        -1.217564         0.990817
 H         4.388056         0.648805         1.419576
 H         2.049004         1.247231         3.075416
 H         2.273158         3.044183        -0.589778
