19
Iteration:  1087
 C        -0.158725        -0.135338         0.298928
 C         1.412757        -0.179937         0.039591
 C         2.408143        -0.961064        -0.794953
 C         3.483220         0.095339        -0.336649
 C         3.784610         0.008720         1.150183
 C         2.321958         0.382944         1.348098
 O         1.667356         0.536974         2.473480
 C         2.266448         1.068141         0.045721
 O         1.839918         2.270828        -0.590894
 H        -0.476295         0.868558         0.523168
 H        -0.605573        -0.507630        -0.599147
 H        -0.577572        -0.782798         1.081162
 H         2.853147        -1.999859        -0.453079
 H         2.254241        -1.050334        -1.930243
 H         4.309121         0.337686        -1.162997
 H         4.334074        -0.793824         1.515230
 H         4.347652         0.964833         1.369877
 H         2.249698         0.906219         3.169962
 H         1.166796         2.744993        -0.087389
