19
Iteration:  2622
 C        -0.023538        -0.142759         0.223107
 C         1.472414        -0.227185         0.145376
 C         2.389542        -0.997782        -0.750270
 C         3.346549         0.077977        -0.560385
 C         3.813252        -0.044327         0.902876
 C         2.320628         0.332293         1.293437
 O         1.867814         0.738009         2.539992
 C         2.179263         1.012683        -0.039166
 O         1.655785         2.283491        -0.113705
 H        -0.304472         0.914649         0.325113
 H        -0.490658        -0.615298        -0.695283
 H        -0.483164        -0.789650         1.014365
 H         2.702002        -2.039154        -0.546440
 H         1.972625        -1.042090        -1.765084
 H         4.043284         0.339514        -1.326574
 H         4.311369        -0.935123         1.167697
 H         4.612997         0.824980         1.033936
 H         2.421215         1.485280         2.856545
 H         1.052875         2.344986        -0.881743
