19
Iteration:  3021
 C        -0.115385        -0.387357         0.395301
 C         1.353567        -0.268196         0.108336
 C         2.300671        -0.868159        -0.905179
 C         3.312154         0.211655        -0.589738
 C         3.791391        -0.156353         0.805169
 C         2.406420         0.325211         1.205140
 O         1.960738         0.572338         2.610369
 C         2.148244         1.119641        -0.026282
 O         1.788987         2.476740         0.000062
 H        -0.339765        -1.196378         1.075059
 H        -0.457712         0.527996         0.756722
 H        -0.497421        -0.539403        -0.613449
 H         2.602464        -1.875246        -0.744579
 H         2.068392        -0.905183        -1.951203
 H         4.091385         0.482983        -1.313727
 H         4.164619        -1.172657         0.814013
 H         4.483691         0.718173         1.167559
 H         1.977037         1.566078         2.606926
 H         1.743318         2.854586        -0.889688
