19
Iteration:   372charge 0 multiplicity 1
 C         0.000625        -0.041573         0.195492
 C         1.436680        -0.175991         0.222892
 C         2.415704        -0.890575        -0.700749
 C         3.472187         0.025959        -0.459438
 C         3.782231        -0.126933         1.052457
 C         2.329120         0.302020         1.401192
 O         1.692194         0.700217         2.532974
 C         2.331616         1.120972         0.041210
 O         1.665890         2.209565        -0.610982
 H        -0.340443         1.035924         0.375065
 H        -0.381658        -0.303082        -0.846177
 H        -0.510380        -0.584540         1.051369
 H         2.623562        -1.994049        -0.493997
 H         1.963106        -0.726693        -1.647576
 H         4.374122         0.071110        -1.115445
 H         3.831199        -1.234993         1.247338
 H         4.598747         0.463093         1.500255
 H         1.036445         0.086221         2.893122
 H         2.052659         3.029739        -0.188398
