19
Iteration:  4165charge 0 multiplicity 1
 C        -0.067950        -0.234440         0.410514
 C         1.343452         0.023426        -0.015842
 C         2.135148        -0.288522        -1.326895
 C         3.374273         0.447859        -0.631022
 C         3.823093        -0.400100         0.669456
 C         2.457032         0.026459         1.261040
 O         1.896200        -0.092921         2.462678
 C         2.249818         1.208207         0.366455
 O         1.755228         2.577266         0.303496
 H        -0.169691         0.508482         1.271900
 H        -0.762188         0.068332        -0.427532
 H        -0.436203        -1.172351         0.814918
 H         2.237923        -1.338700        -1.614328
 H         1.698797         0.271140        -2.161797
 H         4.014067         0.823136        -1.419482
 H         4.033354        -1.453068         0.328534
 H         4.836243        -0.087357         1.121232
 H         2.145062        -0.984165         2.838264
 H         2.395182         3.180045         0.770515
