19
Iteration:  4032charge 0 multiplicity 1
 C        -0.092121        -0.273722         0.369082
 C         1.381938         0.046464         0.049636
 C         2.123329        -0.426318        -1.193544
 C         3.351645         0.454919        -0.611118
 C         3.691657        -0.328900         0.630423
 C         2.447196         0.061462         1.191288
 O         1.975187         0.071682         2.467658
 C         2.275631         1.172884         0.158507
 O         1.814039         2.508801         0.389523
 H        -0.585451        -0.517015        -0.585678
 H        -0.152783        -1.213926         0.969678
 H        -0.600739         0.509650         0.958367
 H         2.379588        -1.428107        -1.555972
 H         1.794754         0.150370        -2.061928
 H         4.180890         0.616120        -1.250924
 H         3.963475        -1.390429         0.666788
 H         4.442429         0.181336         1.208444
 H         1.540370        -0.821269         2.580891
 H         2.458415         3.109524         0.809439
