19
Iteration:  1820
 C        -0.026275        -0.376149         0.699381
 C         1.355381        -0.229785         0.126464
 C         2.327233        -1.005646        -0.806600
 C         3.389650         0.106205        -0.561640
 C         3.839114        -0.102083         0.962790
 C         2.454143         0.497745         1.267927
 O         1.691535         0.800238         2.436618
 C         2.201090         1.004388        -0.091871
 O         1.826091         2.352176        -0.368696
 H        -0.165947         0.475548         1.446379
 H        -0.705069        -0.281918        -0.186868
 H        -0.215623        -1.369955         1.259219
 H         2.744615        -1.988160        -0.451650
 H         1.896780        -1.218650        -1.837985
 H         4.060402         0.583548        -1.383235
 H         4.142608        -0.999149         1.537897
 H         4.586699         0.618138         0.917522
 H         1.244173         1.644226         2.357066
 H         1.841052         2.331367        -1.333059
