19
Iteration:  3931charge 0 multiplicity 1
 C        -0.221668        -0.138762         0.218811
 C         1.328071        -0.058387        -0.044210
 C         2.191755        -0.519605        -1.121259
 C         3.280810         0.411055        -0.707913
 C         3.846078        -0.335147         0.662384
 C         2.514238         0.181968         1.314593
 O         2.101248         0.088753         2.568129
 C         2.202592         1.181910         0.192914
 O         1.762981         2.450723         0.367178
 H        -0.618140         0.279747         1.138758
 H        -0.657009         0.420707        -0.597883
 H        -0.582943        -1.181864        -0.063021
 H         2.482199        -1.563520        -0.992011
 H         1.648903        -0.372027        -2.059193
 H         4.048797         0.891405        -1.409872
 H         4.165902        -1.410827         0.549495
 H         4.640812         0.135213         1.076349
 H         1.291836        -0.413251         2.680081
 H         2.255678         2.868036         1.117104
