19
Iteration:    14charge 0 multiplicity 1
 C        -0.203125        -0.432766         0.234558
 C         1.370076        -0.174939         0.181755
 C         2.364877        -1.041924        -0.784202
 C         3.376397         0.094565        -0.472672
 C         3.802199        -0.071530         1.048551
 C         2.375772         0.390627         1.365605
 O         1.689725         0.887403         2.494160
 C         2.225763         1.061328         0.016576
 O         2.050362         2.408693        -0.449566
 H        -0.856757         0.279253         0.799096
 H        -0.652708        -0.634140        -0.762095
 H        -0.236369        -1.441330         0.711361
 H         2.659885        -2.020164        -0.763215
 H         1.889414        -0.865217        -1.772690
 H         4.115269         0.309195        -1.174968
 H         4.169060        -1.091274         1.287477
 H         4.631840         0.584577         1.350910
 H         0.871101         0.302774         2.676627
 H         2.029127         2.916594         0.417909
