19
Iteration:  4366
 C        -0.064917        -0.148538         0.275304
 C         1.325178         0.026218        -0.022707
 C         2.109427        -0.260690        -1.243248
 C         3.184447         0.565407        -0.583770
 C         3.729080        -0.333838         0.614756
 C         2.374130        -0.015840         1.214541
 O         2.121863        -0.467500         2.487138
 C         2.167132         1.278154         0.373491
 O         1.956099         2.656559         0.377864
 H        -0.143012        -0.175566         1.353255
 H        -0.737886         0.601657        -0.165605
 H        -0.395487        -1.132245        -0.175934
 H         2.239304        -1.305522        -1.397654
 H         1.893576         0.152346        -2.209133
 H         3.778158         1.065652        -1.302812
 H         3.913979        -1.367715         0.339046
 H         4.526929         0.324333         1.073189
 H         1.287177        -0.674452         2.896657
 H         2.702781         3.105902         0.797701
