19
Iteration:  1807
 C        -0.003968        -0.409429         0.647055
 C         1.416858        -0.239305         0.162405
 C         2.346604        -1.020679        -0.766070
 C         3.342280         0.083833        -0.561516
 C         3.800800        -0.034990         0.898789
 C         2.335218         0.502029         1.269293
 O         1.714297         0.763197         2.527060
 C         2.151629         1.087617        -0.095257
 O         1.910127         2.358883        -0.458361
 H        -0.171840         0.271605         1.566536
 H        -0.866719        -0.190554        -0.005545
 H        -0.191886        -1.473042         1.061828
 H         2.650724        -2.031274        -0.351398
 H         2.140384        -1.100323        -1.869477
 H         4.193734         0.195445        -1.330602
 H         4.032461        -1.092094         1.021386
 H         4.586884         0.576673         1.441993
 H         1.664720         1.753997         2.620207
 H         1.494328         2.479533        -1.344457
