19
Iteration:  1868charge 0 multiplicity 1
 C        -0.178330        -0.475457         0.341719
 C         1.392153        -0.251657         0.220610
 C         2.343459        -1.146435        -0.764307
 C         3.338570         0.059751        -0.596637
 C         3.759576         0.002818         0.953341
 C         2.384761         0.463522         1.270873
 O         1.985365         0.971932         2.480234
 C         2.142925         1.049482        -0.065146
 O         1.821200         2.369468        -0.214450
 H        -0.726018         0.418746         0.490951
 H        -0.525852        -1.147405        -0.459981
 H        -0.239493        -0.989338         1.267867
 H         2.737283        -2.128530        -0.475692
 H         2.031953        -1.262093        -1.808883
 H         4.132987         0.270801        -1.249529
 H         3.954187        -1.056366         1.189224
 H         4.514168         0.626847         1.350241
 H         2.155473         1.940240         2.542646
 H         1.065278         2.417915        -0.850108
