19
Iteration:  4380charge 0 multiplicity 1
 C        -0.146702        -0.165442         0.343548
 C         1.349396         0.057423         0.074318
 C         2.092585        -0.272170        -1.304372
 C         3.298907         0.578577        -0.641261
 C         3.724771        -0.294268         0.641035
 C         2.401137         0.003379         1.229240
 O         2.125703        -0.529336         2.498704
 C         2.218239         1.284165         0.303056
 O         1.917523         2.658099         0.343651
 H        -0.568629         0.264496         1.262798
 H        -0.729355         0.422749        -0.404869
 H        -0.485987        -1.219932         0.239571
 H         2.401450        -1.262529        -1.717884
 H         1.407966         0.258073        -2.019959
 H         4.090256         1.193134        -1.074657
 H         3.897403        -1.392818         0.520635
 H         4.500114        -0.014065         1.293366
 H         1.165611        -0.641778         2.278436
 H         2.581348         2.981437         0.985850
