19
Iteration:   877
 C        -0.022955        -0.231607         0.303725
 C         1.482279        -0.120912         0.211361
 C         2.318546        -0.817077        -0.769065
 C         3.383270         0.159712        -0.383171
 C         3.732625        -0.101638         1.125066
 C         2.322417         0.411753         1.420463
 O         1.697183         0.421959         2.665340
 C         2.259307         1.147875         0.027868
 O         1.811069         2.278045        -0.818132
 H        -0.473278         0.589548         0.814218
 H        -0.430996        -0.359377        -0.687540
 H        -0.337350        -1.118862         0.859678
 H         2.480258        -1.909844        -0.706175
 H         1.920173        -0.592022        -1.805528
 H         4.205466         0.612641        -0.917275
 H         4.006273        -1.128144         1.235122
 H         4.563803         0.545132         1.390392
 H         1.871430         1.326748         3.063106
 H         2.545440         2.415749        -1.466288
