19
Iteration:  1227charge 0 multiplicity 1
 C        -0.075184        -0.483167         0.334787
 C         1.429828        -0.149117         0.035375
 C         2.318074        -0.964190        -0.747312
 C         3.428414         0.198183        -0.415927
 C         3.770901         0.015638         1.158163
 C         2.244811         0.332435         1.318511
 O         1.670963         0.671136         2.509761
 C         2.219177         1.087723         0.004542
 O         2.018565         2.390839        -0.558094
 H        -0.271986        -0.324170         1.407418
 H        -0.811836        -0.020773        -0.365008
 H        -0.243771        -1.620371         0.221249
 H         2.445685        -1.992309        -0.325066
 H         2.204857        -1.179220        -1.884558
 H         4.256299         0.427315        -1.201198
 H         4.235548        -0.987376         1.511952
 H         4.481711         0.884386         1.322516
 H         1.657105         1.618660         2.550406
 H         1.182089         2.722450        -0.159629
