19
Iteration:  1895charge 0 multiplicity 1
 C        -0.171210        -0.555972         0.176815
 C         1.353224        -0.124679         0.266859
 C         2.309598        -1.031008        -0.560796
 C         3.300744         0.093591        -0.603382
 C         3.845055        -0.067071         0.896042
 C         2.400110         0.344662         1.322805
 O         2.004221         0.941653         2.539914
 C         2.087082         1.088355        -0.021924
 O         1.822275         2.356317        -0.375133
 H        -0.787679         0.380045         0.234606
 H        -0.342227        -1.296403        -0.585862
 H        -0.345512        -0.981511         1.201199
 H         2.645347        -2.027269        -0.220596
 H         1.792774        -1.181780        -1.534618
 H         4.218025         0.319176        -1.258288
 H         4.259465        -1.080799         1.068074
 H         4.639744         0.812134         1.095860
 H         2.544348         1.753992         2.689748
 H         0.856536         2.536194        -0.472015
