19
Iteration:   464charge 0 multiplicity 1
 C        -0.148355        -0.603457         0.173308
 C         1.308225        -0.109841         0.043008
 C         2.286088        -0.957870        -0.840842
 C         3.340966         0.036738        -0.390514
 C         3.676592        -0.158289         1.057230
 C         2.355046         0.545466         1.443296
 O         1.760856         0.771011         2.595477
 C         2.267717         1.133374         0.074621
 O         2.141749         2.460249        -0.493017
 H        -0.750462        -0.349375         1.055309
 H        -0.471202        -0.203395        -0.782927
 H        -0.064712        -1.703237         0.225053
 H         2.510229        -1.913540        -0.473998
 H         2.219897        -1.034692        -1.893923
 H         4.244098         0.323999        -0.923324
 H         3.951653        -1.195006         1.282535
 H         4.627783         0.452562         1.326929
 H         1.212698         1.560553         2.604959
 H         1.249402         2.707507        -0.210469
