19
Iteration:  1687
 C         0.054221        -0.232256         0.437411
 C         1.493428        -0.217464         0.124188
 C         2.382728        -1.114437        -0.728803
 C         3.457848        -0.019346        -0.503895
 C         3.809595        -0.016954         0.946266
 C         2.366174         0.492592         1.248862
 O         1.830452         0.889960         2.433797
 C         2.192296         1.059177        -0.035591
 O         1.522798         2.241678        -0.340655
 H        -0.274846         0.713294         0.952571
 H        -0.662549        -0.477022        -0.352376
 H        -0.125066        -0.939600         1.316413
 H         2.460110        -2.144458        -0.348037
 H         2.031757        -1.191835        -1.777652
 H         4.157842         0.305297        -1.293147
 H         4.203995        -0.958514         1.411765
 H         4.464176         0.781940         1.176370
 H         0.963208         0.481017         2.408280
 H         2.246932         2.879795        -0.282140
