19
Iteration:  4277charge 0 multiplicity 1
 C        -0.214336        -0.196278         0.291536
 C         1.342215        -0.034344        -0.058199
 C         2.182476        -0.355300        -1.288844
 C         3.374606         0.520006        -0.621562
 C         3.708152        -0.386568         0.566088
 C         2.418323         0.004459         1.123202
 O         2.149465         0.016019         2.425950
 C         2.161597         1.183552         0.232149
 O         1.845673         2.460801         0.697462
 H        -0.684434        -1.052728        -0.251558
 H        -0.437280        -0.370867         1.378662
 H        -0.698698         0.804832         0.060121
 H         2.308226        -1.426637        -1.400292
 H         1.979549         0.208943        -2.205084
 H         4.204498         0.946772        -1.285987
 H         3.801622        -1.465513         0.281203
 H         4.639477         0.111902         1.095332
 H         1.205478         0.188793         2.444253
 H         2.291580         2.553797         1.565960
