19
Iteration:  4722
 C        -0.094787        -0.177131         0.297165
 C         1.319141         0.159691        -0.114816
 C         2.142917        -0.038267        -1.423903
 C         3.269352         0.624552        -0.615746
 C         3.784754        -0.438103         0.400005
 C         2.412689        -0.060637         1.134156
 O         1.871225        -0.280993         2.397425
 C         2.242162         1.185687         0.422852
 O         2.013868         2.441824         0.906155
 H        -0.649765        -0.532757        -0.598075
 H        -0.030585        -1.147763         0.795772
 H        -0.658329         0.562453         0.903337
 H         2.304920        -1.118209        -1.745936
 H         1.540177         0.434835        -2.245763
 H         3.919235         1.164091        -1.235755
 H         3.877230        -1.485370        -0.002839
 H         4.680003        -0.171494         0.971282
 H         1.389533        -1.081675         2.223219
 H         2.754694         2.691457         1.481243
