19
Iteration:  3647
 C        -0.074413        -0.401453         0.414704
 C         1.363167        -0.050391         0.048700
 C         2.183881        -0.636452        -1.142398
 C         3.362331         0.343315        -0.567824
 C         3.726744        -0.280845         0.814018
 C         2.426777         0.275405         1.249579
 O         1.988177         0.210974         2.592052
 C         2.169248         1.251989         0.106810
 O         1.911556         2.585637         0.047662
 H        -0.284696        -1.440144         0.005518
 H        -0.179466        -0.475638         1.517134
 H        -0.913643         0.309187         0.006822
 H         2.248624        -1.742080        -1.254759
 H         1.724358        -0.194474        -2.032615
 H         4.059375         0.737292        -1.269691
 H         3.875111        -1.412523         0.821026
 H         4.534680         0.208153         1.397199
 H         1.562753        -0.647136         2.741151
 H         1.296384         2.868369        -0.664900
