19
Iteration:  3071charge 0 multiplicity 1
 C        -0.048302        -0.305490         0.597049
 C         1.405534        -0.102510         0.228268
 C         2.265544        -0.730859        -0.929758
 C         3.415934         0.193749        -0.645311
 C         3.845779        -0.093905         0.840132
 C         2.432717         0.271322         1.321434
 O         1.798128         0.243470         2.550402
 C         2.220061         1.189968         0.104179
 O         1.704350         2.472119        -0.373437
 H        -0.075567        -0.142151         1.720256
 H        -0.650055         0.511630        -0.003183
 H        -0.405430        -1.300543         0.321755
 H         2.514385        -1.840453        -1.059973
 H         1.701962        -0.504406        -1.873247
 H         4.154874         0.548449        -1.363740
 H         4.039646        -1.171114         0.942527
 H         4.527678         0.564152         1.208642
 H         1.584812         1.162310         2.781640
 H         2.314432         2.614082        -1.121520
