19
Iteration:  4501
 C        -0.305445        -0.263593         0.097335
 C         1.283871        -0.086884        -0.037059
 C         2.138383        -0.266490        -1.348008
 C         3.256016         0.582641        -0.623584
 C         3.728941        -0.342838         0.459959
 C         2.350060        -0.066284         1.137697
 O         2.083976        -0.121795         2.486980
 C         2.197420         1.307013         0.328947
 O         2.105006         2.545298         0.856179
 H        -0.576357        -0.677753        -0.861924
 H        -0.821910        -0.636036         0.959742
 H        -0.659127         0.762185         0.091067
 H         2.585947        -1.144324        -1.684343
 H         1.718319         0.285098        -2.203340
 H         4.034740         1.073128        -1.328277
 H         4.026373        -1.400224         0.225602
 H         4.491713         0.020150         1.097414
 H         2.476530        -0.975115         2.777115
 H         2.115095         2.512802         1.851199
