19
Iteration:   319
 C        -0.188092        -0.529787         0.341419
 C         1.251018        -0.182204        -0.001365
 C         2.343311        -1.003257        -0.815104
 C         3.384602         0.133004        -0.419525
 C         3.673376        -0.124466         1.038282
 C         2.223383         0.397017         1.294792
 O         1.736086         0.870231         2.565996
 C         2.177921         1.091952        -0.066980
 O         2.305317         2.448276        -0.392415
 H        -0.771982         0.405728         0.256463
 H        -0.552112        -1.249213        -0.409875
 H        -0.298506        -1.009442         1.321315
 H         2.508894        -2.042089        -0.585861
 H         2.075559        -1.001316        -1.841011
 H         4.248387         0.591909        -1.040517
 H         4.161587        -1.024200         1.491494
 H         4.369919         0.742006         1.331719
 H         1.991938         0.202390         3.188720
 H         1.423074         2.882335        -0.384029
