19
Iteration:  4850
 C        -0.048975         0.195985         0.321329
 C         1.359950         0.128810        -0.104485
 C         2.081133        -0.057641        -1.424831
 C         3.361746         0.567233        -0.722416
 C         3.769983        -0.369835         0.409207
 C         2.454873        -0.170740         1.120964
 O         2.050862        -0.479668         2.371635
 C         2.262340         1.140154         0.490469
 O         1.734605         2.358871         0.964468
 H        -0.001344         0.260344         1.407900
 H        -0.569635         1.109900        -0.090310
 H        -0.663261        -0.706439         0.151259
 H         2.394535        -1.050255        -1.717065
 H         1.613243         0.651012        -2.138871
 H         4.181579         1.048454        -1.204200
 H         4.105494        -1.386889         0.017816
 H         4.530131         0.047175         0.997298
 H         1.654086        -1.392939         2.408955
 H         1.499672         3.082476         0.310371
