19
Iteration:  1998charge 0 multiplicity 1
 C        -0.078451        -0.410178         0.513433
 C         1.389197        -0.204709         0.176153
 C         2.271865        -1.002486        -0.713772
 C         3.408381         0.058156        -0.506686
 C         3.774346         0.045289         1.019538
 C         2.455937         0.545817         1.289531
 O         1.864969         0.744343         2.556267
 C         2.198797         1.064140        -0.097988
 O         1.735369         2.329591        -0.595734
 H        -0.321948        -0.206724         1.576531
 H        -0.947527        -0.076657        -0.123245
 H        -0.140264        -1.507190         0.531839
 H         2.640363        -1.996024        -0.403812
 H         1.747207        -0.944354        -1.689723
 H         4.170783         0.160888        -1.260057
 H         4.109414        -0.953538         1.507464
 H         4.544750         0.703265         1.205742
 H         2.340911         1.285398         3.178915
 H         1.406178         2.176330        -1.491830
