19
Iteration:   981
 C        -0.113248        -0.423739         0.319260
 C         1.427823        -0.313713         0.159542
 C         2.359241        -1.098949        -0.746911
 C         3.394135         0.131506        -0.502955
 C         3.836567        -0.024583         0.981971
 C         2.271839         0.309935         1.206605
 O         1.593572         0.901292         2.345744
 C         2.187553         1.020033        -0.143410
 O         2.086055         2.425700         0.000158
 H        -0.431248         0.028758         1.315585
 H        -0.664817         0.271571        -0.368709
 H        -0.531347        -1.440872         0.240329
 H         2.656671        -2.030360        -0.314659
 H         1.992498        -1.173247        -1.734357
 H         4.068909         0.427871        -1.386565
 H         4.311471        -0.936378         1.530022
 H         4.377822         0.873589         1.399891
 H         1.245626         1.744857         1.962941
 H         1.934940         2.763606        -0.890529
