19
Iteration:  3733
 C        -0.119643        -0.173819         0.328101
 C         1.427116        -0.107345         0.007026
 C         2.251891        -0.629601        -1.153975
 C         3.443388         0.267509        -0.687326
 C         3.834542        -0.256996         0.671069
 C         2.371631         0.087380         1.211161
 O         1.991821         0.377075         2.574035
 C         2.204757         1.201683         0.117240
 O         1.685509         2.450761         0.402472
 H        -0.177165         0.425926         1.245690
 H        -0.740207         0.200375        -0.413503
 H        -0.563685        -1.207015         0.310883
 H         2.405100        -1.761280        -1.071861
 H         1.797057        -0.381317        -2.137550
 H         4.133169         0.307413        -1.496505
 H         4.098319        -1.358375         0.815807
 H         4.521610         0.292461         1.168332
 H         1.549310        -0.356137         3.020307
 H         1.380382         2.896965        -0.393337
