19
Iteration:  2692
 C        -0.036086        -0.567215         0.521359
 C         1.350787        -0.097067         0.100937
 C         2.289030        -0.854460        -0.924198
 C         3.318689         0.197222        -0.531875
 C         3.702126        -0.100227         1.086422
 C         2.336199         0.350432         1.256331
 O         1.835848         0.539257         2.568041
 C         2.180492         1.159535        -0.042128
 O         2.023344         2.486150        -0.446813
 H        -0.725734        -0.879225        -0.279189
 H         0.035036        -1.302775         1.259360
 H        -0.580959         0.180459         1.057933
 H         2.536781        -1.894169        -0.804168
 H         1.879057        -0.772538        -1.949204
 H         4.069599         0.614052        -1.245631
 H         3.897942        -1.144268         1.543679
 H         4.510234         0.640392         1.453212
 H         1.980517         1.458556         2.854438
 H         1.161127         2.604250        -0.866914
