19
Iteration:  2040
 C        -0.164062        -0.535130         0.270801
 C         1.361156        -0.318841         0.290871
 C         2.328780        -1.165727        -0.652491
 C         3.262335         0.081732        -0.635429
 C         3.792545         0.049901         0.927345
 C         2.403006         0.487976         1.295246
 O         2.022288         1.018653         2.514650
 C         2.033586         1.019196        -0.026603
 O         1.881409         2.372919        -0.284954
 H        -0.819805        -0.030565         0.941668
 H        -0.305513        -0.142102        -0.713402
 H        -0.356866        -1.614390         0.174244
 H         2.717904        -2.069994        -0.164804
 H         2.031660        -1.319269        -1.701427
 H         3.978610         0.222777        -1.367443
 H         4.215551        -0.959621         1.398350
 H         4.532152         0.786919         1.260175
 H         2.285520         1.968238         2.461978
 H         1.254248         2.440472        -1.022045
