19
Iteration:  3626charge 0 multiplicity 1
 C         0.013342        -0.406985         0.527252
 C         1.350516        -0.052297         0.090781
 C         2.237386        -0.564148        -1.132325
 C         3.375870         0.330371        -0.688576
 C         3.715697        -0.277096         0.714504
 C         2.363517         0.160987         1.238339
 O         1.845367         0.299654         2.526350
 C         2.279270         1.221356         0.196056
 O         1.878314         2.545459         0.080288
 H        -0.616175        -0.926919        -0.169313
 H         0.165022        -0.980183         1.454803
 H        -0.633905         0.480479         0.800697
 H         2.456412        -1.615684        -1.003442
 H         1.921757        -0.388205        -2.154851
 H         4.159323         0.703856        -1.310905
 H         3.943986        -1.376883         0.779091
 H         4.500662         0.336733         1.262817
 H         1.133053        -0.334842         2.695646
 H         1.568464         2.607826        -0.830034
