19
Iteration:  4505charge 0 multiplicity 1
 C        -0.288946        -0.281112         0.093771
 C         1.275477        -0.077553        -0.016787
 C         2.124407        -0.263968        -1.348781
 C         3.256049         0.619410        -0.637623
 C         3.753336        -0.367968         0.486015
 C         2.321809        -0.053320         1.135459
 O         2.081001        -0.127394         2.466282
 C         2.207593         1.290437         0.333734
 O         2.123456         2.560733         0.855495
 H        -0.706642        -0.797447        -0.831243
 H        -0.770795        -0.638976         1.026655
 H        -0.675129         0.755578         0.003494
 H         2.526146        -1.266700        -1.745572
 H         1.828858         0.309087        -2.261362
 H         3.861148         1.155510        -1.356677
 H         4.008259        -1.375695         0.179860
 H         4.515070         0.022414         1.200131
 H         2.411395        -0.961715         2.865596
 H         2.141657         2.433570         1.819358
