19
Iteration:  1738
 C        -0.079190        -0.449106         0.284856
 C         1.421101        -0.251778         0.245843
 C         2.292842        -1.022656        -0.761962
 C         3.251312         0.166271        -0.546925
 C         3.777809         0.014904         0.982743
 C         2.384688         0.438307         1.380307
 O         2.022041         0.982480         2.627363
 C         2.108947         1.040512         0.032832
 O         1.832746         2.243019        -0.602444
 H        -0.557847         0.225020         0.966676
 H        -0.419970        -0.058093        -0.712068
 H        -0.410649        -1.488601         0.419374
 H         2.835558        -1.948842        -0.405148
 H         1.823796        -1.148320        -1.727340
 H         3.902390         0.138252        -1.317665
 H         3.989265        -1.011780         1.259841
 H         4.670772         0.742713         1.324989
 H         1.862667         0.181727         3.215181
 H         0.943636         2.505008        -0.269093
