19
Iteration:  4702
 C        -0.064862        -0.032869         0.294658
 C         1.334707         0.076767        -0.111630
 C         2.073739        -0.061457        -1.414650
 C         3.377543         0.547557        -0.681625
 C         3.767235        -0.426621         0.461683
 C         2.454478        -0.108981         1.102046
 O         1.927205        -0.332426         2.415111
 C         2.312990         1.168583         0.387591
 O         1.814740         2.468372         0.864121
 H        -0.796744         0.483673        -0.360781
 H        -0.445880        -1.029717         0.587133
 H        -0.087382         0.613821         1.201208
 H         2.302608        -1.062176        -1.766741
 H         1.846323         0.751707        -2.232034
 H         4.114037         1.130335        -1.226495
 H         3.965615        -1.434678         0.147773
 H         4.586214         0.069481         1.073887
 H         1.620187        -1.252414         2.492647
 H         2.154229         2.546535         1.750887
