19
Iteration:  4186charge 0 multiplicity 1
 C        -0.040986        -0.147942         0.414979
 C         1.372256         0.089757        -0.027257
 C         2.215659        -0.313257        -1.286909
 C         3.318588         0.516276        -0.634766
 C         3.656695        -0.374085         0.619075
 C         2.378246         0.097623         1.214385
 O         1.949825        -0.202538         2.585662
 C         2.206896         1.194572         0.219684
 O         1.839989         2.495499         0.302441
 H        -0.687264         0.650216         0.887935
 H        -0.581805        -0.714839        -0.391751
 H         0.046716        -0.891273         1.212960
 H         2.322984        -1.353362        -1.551533
 H         1.831500         0.305760        -2.090108
 H         4.081522         1.087900        -1.140226
 H         3.800162        -1.523422         0.684020
 H         4.564019         0.060150         1.125414
 H         2.419471        -1.058026         2.563590
 H         2.471302         2.953125         0.842674
