19
Iteration:  2029charge 0 multiplicity 1
 C        -0.113691        -0.501219         0.247735
 C         1.328676        -0.377061         0.259900
 C         2.308812        -1.070748        -0.571489
 C         3.269964         0.145948        -0.565412
 C         3.770094         0.040688         0.955342
 C         2.366779         0.390547         1.326610
 O         2.024825         0.978681         2.530166
 C         2.120720         1.005400        -0.065554
 O         1.862336         2.400997        -0.409994
 H        -0.486396        -0.191126         1.201238
 H        -0.728803        -0.097331        -0.544750
 H        -0.352654        -1.585730         0.276390
 H         2.785745        -2.027118        -0.351242
 H         1.736463        -1.322229        -1.490830
 H         3.947914         0.403754        -1.290387
 H         4.247467        -1.026042         1.180003
 H         4.350682         0.942729         1.093202
 H         2.568557         1.777790         2.768616
 H         1.321713         2.424388        -1.235270
