19
Iteration:   361charge 0 multiplicity 1
 C        -0.042301        -0.113739         0.221203
 C         1.492683        -0.132317         0.229384
 C         2.324298        -0.933789        -0.739823
 C         3.508914         0.107939        -0.414896
 C         3.753666        -0.231191         1.102235
 C         2.325440         0.336908         1.355457
 O         1.699474         0.733325         2.595945
 C         2.292741         1.119499        -0.056181
 O         1.747710         2.286145        -0.644331
 H        -0.439118         0.941961         0.221926
 H        -0.382272        -0.649007        -0.713774
 H        -0.506441        -0.771148         1.007369
 H         2.563871        -2.017510        -0.538359
 H         2.052186        -0.860785        -1.770757
 H         4.299465         0.195500        -1.179649
 H         4.073077        -1.279348         1.344719
 H         4.460260         0.432144         1.613554
 H         1.374562        -0.167367         2.936131
 H         1.680680         2.998888         0.047681
