19
Iteration:  3368charge 0 multiplicity 1
 C        -0.208089        -0.373579         0.262625
 C         1.360719        -0.163141         0.113598
 C         2.257518        -0.760455        -1.040168
 C         3.364885         0.188160        -0.649192
 C         3.791780        -0.220455         0.839304
 C         2.420317         0.201954         1.286337
 O         2.123370         0.657543         2.520841
 C         2.211532         1.137781         0.140589
 O         1.658596         2.461201         0.090367
 H        -0.454434        -1.129572        -0.551867
 H        -0.681617        -0.596542         1.223638
 H        -0.722307         0.511478         0.015409
 H         2.574772        -1.799317        -1.036112
 H         1.703602        -0.585874        -1.980747
 H         4.195594         0.598618        -1.243579
 H         4.257155        -1.263809         1.103430
 H         4.670342         0.293728         1.385961
 H         1.669208        -0.057479         3.041246
 H         2.092839         2.980861        -0.589555
