19
Iteration:  1643charge 0 multiplicity 1
 C        -0.087433        -0.516399         0.526898
 C         1.339872        -0.243949         0.100861
 C         2.314528        -1.004382        -0.746783
 C         3.319560         0.193437        -0.460150
 C         3.790174         0.035765         0.958312
 C         2.394421         0.473068         1.293461
 O         1.802840         0.824628         2.502894
 C         2.131124         1.083376        -0.033355
 O         1.943506         2.357341        -0.472651
 H        -0.602054         0.473643         0.485998
 H        -0.473476        -1.160962        -0.278541
 H        -0.296429        -0.829519         1.583603
 H         2.789326        -1.932616        -0.373833
 H         2.096323        -1.202271        -1.808289
 H         4.184669         0.356603        -1.110657
 H         4.254369        -1.011248         1.205719
 H         4.506554         0.819539         1.147029
 H         1.701503        -0.008673         2.961686
 H         1.667089         2.317075        -1.399260
