19
Iteration:  2357
 C        -0.054558        -0.429351         0.643291
 C         1.362183        -0.237452         0.167871
 C         2.379546        -0.969048        -0.790304
 C         3.415851         0.097831        -0.531313
 C         3.690433        -0.033457         1.050913
 C         2.276748         0.503514         1.211491
 O         1.875746         0.719332         2.582649
 C         2.164027         1.109334        -0.114936
 O         1.921066         2.376002        -0.583708
 H        -0.242509         0.251524         1.499977
 H        -0.689051        -0.240917        -0.232087
 H        -0.057115        -1.482294         1.030773
 H         2.566268        -1.984822        -0.405584
 H         1.871529        -1.150826        -1.755939
 H         4.325209         0.339717        -1.135037
 H         3.977571        -1.018285         1.316177
 H         4.364094         0.878474         1.476034
 H         0.943375         1.019264         2.654329
 H         1.586297         2.341191        -1.511731
