19
Iteration:  1745
 C        -0.100953        -0.486410         0.261404
 C         1.369821        -0.245442         0.252166
 C         2.280533        -1.028016        -0.778302
 C         3.247835         0.144341        -0.521733
 C         3.805287        -0.024691         0.969562
 C         2.431115         0.517697         1.365108
 O         1.973361         0.974976         2.705610
 C         2.126884         1.060438        -0.017734
 O         1.865416         2.255546        -0.608724
 H        -0.573432         0.135967         1.047691
 H        -0.558051        -0.142044        -0.669419
 H        -0.229476        -1.547876         0.361024
 H         2.613187        -1.932091        -0.286523
 H         1.793411        -1.234240        -1.748096
 H         3.968651         0.409870        -1.399009
 H         4.224797        -1.069232         1.229101
 H         4.509875         0.753635         1.188503
 H         2.181264         0.206297         3.307122
 H         0.927647         2.459621        -0.378631
