19
Iteration:   182
 C        -0.082035        -0.038118        -0.001973
 C         1.410962        -0.158548         0.331544
 C         2.252993        -0.935514        -0.622913
 C         3.395244         0.116724        -0.535894
 C         3.793569        -0.069239         1.063836
 C         2.349716         0.412141         1.426931
 O         1.895679         0.577941         2.669286
 C         2.323468         1.088833         0.004516
 O         1.805136         2.226519        -0.647131
 H        -0.616116         0.518298         0.822185
 H        -0.309948         0.474515        -0.998104
 H        -0.709835        -1.012358        -0.087853
 H         2.486768        -1.943470        -0.272537
 H         1.730114        -1.148585        -1.599655
 H         4.129368         0.477681        -1.328292
 H         4.168864        -1.077084         1.555564
 H         4.536531         0.715059         1.400595
 H         1.341815        -0.230466         2.954376
 H         0.913246         2.329121        -0.223825
