19
Iteration:   927
 C        -0.079642        -0.453846         0.218718
 C         1.447850        -0.238662         0.098764
 C         2.364471        -1.041747        -0.826064
 C         3.407502         0.059064        -0.473352
 C         3.693170        -0.099509         1.189730
 C         2.346259         0.444083         1.251443
 O         1.761677         0.907886         2.442333
 C         2.171018         1.073593        -0.096672
 O         1.855795         2.405371        -0.296593
 H        -0.575298        -0.191082         1.207093
 H        -0.543742         0.129343        -0.621876
 H        -0.380918        -1.513722         0.098489
 H         2.498850        -2.097010        -0.636531
 H         1.998207        -0.913041        -1.859863
 H         4.327091         0.129850        -1.055677
 H         3.739399        -1.157305         1.635581
 H         4.484290         0.572629         1.590604
 H         2.514830         1.289782         2.949971
 H         2.042689         2.800107         0.569248
