19
Iteration:  1832
 C        -0.014543        -0.347385         0.636012
 C         1.425324        -0.210687         0.133660
 C         2.284908        -1.094253        -0.808383
 C         3.348047         0.094075        -0.542132
 C         3.851198         0.008468         1.013422
 C         2.432791         0.396086         1.253673
 O         1.781328         0.841386         2.344856
 C         2.196054         1.038658        -0.024427
 O         1.775272         2.313151        -0.308705
 H        -0.445107         0.510429         1.205734
 H        -0.806767        -0.531489        -0.139737
 H        -0.071310        -1.253931         1.317576
 H         2.432953        -2.173120        -0.649458
 H         1.786734        -0.877424        -1.791302
 H         4.181832         0.351070        -1.252953
 H         4.159818        -1.035224         1.298307
 H         4.559168         0.679689         1.325842
 H         1.338322         1.627890         1.980236
 H         1.872691         2.579179        -1.243648
