19
Iteration:  4256
 C        -0.123261        -0.183240         0.192815
 C         1.395767        -0.060121         0.005438
 C         2.107092        -0.411984        -1.263780
 C         3.275650         0.482841        -0.751381
 C         3.768858        -0.361576         0.576795
 C         2.353458         0.013227         1.189707
 O         2.085550        -0.056705         2.521833
 C         2.207240         1.238041         0.252087
 O         1.890045         2.537630         0.649460
 H        -0.633817        -0.530383        -0.717242
 H        -0.398083        -0.893384         0.996256
 H        -0.605421         0.821233         0.441718
 H         2.436336        -1.425635        -1.538846
 H         1.468027         0.093289        -2.010034
 H         3.989378         1.095609        -1.367896
 H         4.297662        -1.295460         0.395802
 H         4.541975         0.367095         1.105674
 H         1.182730        -0.354176         2.779275
 H         2.501181         2.774497         1.346557
