19
Iteration:  2887
 C        -0.016841        -0.235561         0.491668
 C         1.403369        -0.168727         0.189089
 C         2.254578        -0.780964        -0.848932
 C         3.390867         0.300004        -0.503390
 C         3.772226        -0.072352         0.938997
 C         2.402228         0.321956         1.323504
 O         1.860505         0.249344         2.577118
 C         2.183856         1.144771        -0.014477
 O         1.736772         2.367155        -0.552572
 H        -0.677166         0.611105         0.183190
 H        -0.559840        -1.141692         0.092781
 H        -0.157464        -0.449411         1.525975
 H         2.516311        -1.807055        -0.583870
 H         1.741348        -0.567247        -1.793213
 H         4.049871         0.654068        -1.318744
 H         3.983772        -1.160957         1.067145
 H         4.597283         0.666695         1.391142
 H         2.133015         1.071077         3.059860
 H         2.326292         3.103359        -0.372236
