19
Iteration:   813charge 0 multiplicity 1
 C        -0.065484        -0.094862         0.341212
 C         1.464070        -0.187813         0.181757
 C         2.437765        -1.075346        -0.615753
 C         3.426609         0.111243        -0.509307
 C         3.799595        -0.012665         1.069878
 C         2.334631         0.408000         1.266225
 O         1.607313         0.426425         2.505504
 C         2.260611         1.128723        -0.096749
 O         1.806624         2.381064        -0.591741
 H        -0.411811         0.942686         0.282486
 H        -0.501747        -0.610157        -0.519716
 H        -0.453346        -0.494114         1.304587
 H         2.589586        -1.990521        -0.082623
 H         1.999319        -1.371163        -1.506696
 H         4.209255         0.398946        -1.266816
 H         4.193466        -1.000602         1.428501
 H         4.505968         0.852761         1.332367
 H         2.007394         1.120890         3.110500
 H         1.537853         2.862268         0.203387
