19
Iteration:  3564
 C        -0.168501        -0.290539         0.181277
 C         1.368451        -0.095472         0.064957
 C         2.179573        -0.761605        -0.999590
 C         3.278775         0.277914        -0.601631
 C         3.834987        -0.143574         0.776275
 C         2.393988         0.142496         1.242165
 O         2.045703         0.436878         2.576890
 C         2.142211         1.145245         0.022816
 O         1.873754         2.471629         0.237261
 H        -0.866426         0.572311         0.035011
 H        -0.378800        -1.118110        -0.590104
 H        -0.366056        -0.729321         1.129788
 H         2.347037        -1.796167        -0.608125
 H         1.994339        -0.732880        -2.091781
 H         3.890894         0.825994        -1.349074
 H         4.204299        -1.111359         0.880306
 H         4.511878         0.638562         1.287247
 H         2.454226        -0.269093         3.098230
 H         1.347260         2.861073        -0.465572
