19
Iteration:   688
 C        -0.144526        -0.362422         0.414492
 C         1.360399        -0.254601         0.181139
 C         2.337729        -1.130821        -0.762438
 C         3.421627         0.175967        -0.467995
 C         3.816627         0.110537         1.105735
 C         2.330649         0.403395         1.219586
 O         1.661494         0.778007         2.375291
 C         2.213696         1.031935        -0.101195
 O         2.076597         2.339033        -0.363682
 H        -0.543197         0.022393         1.379682
 H        -0.717127         0.220370        -0.306547
 H        -0.419780        -1.381109         0.208502
 H         2.627120        -2.148837        -0.578473
 H         2.236487        -0.924184        -1.901263
 H         4.078759         0.605633        -1.313325
 H         4.139711        -0.867097         1.572489
 H         4.454911         0.942930         1.342091
 H         0.826614         0.262742         2.436137
 H         1.679179         2.678574         0.464796
