19
Iteration:  2841
 C        -0.074176        -0.177109         0.224403
 C         1.436002        -0.156597         0.183287
 C         2.255386        -0.845558        -0.862024
 C         3.358849         0.231935        -0.512619
 C         3.789034        -0.083027         0.953384
 C         2.380016         0.329830         1.309668
 O         2.063501         0.386957         2.701786
 C         2.155139         1.115378         0.031763
 O         1.582555         2.254628        -0.429127
 H        -0.076663         0.642150         0.933668
 H        -0.551350         0.285741        -0.732334
 H        -0.607229        -1.070593         0.537914
 H         2.628665        -1.860741        -0.685536
 H         1.740948        -0.530124        -1.766326
 H         4.220540         0.569629        -1.141425
 H         4.146962        -1.215928         1.159230
 H         4.408571         0.740017         1.392183
 H         1.992642         1.299991         3.009973
 H         2.348892         2.844988        -0.431396
