19
Iteration:   809charge 0 multiplicity 1
 C        -0.079245        -0.134932         0.310128
 C         1.465263        -0.167224         0.192205
 C         2.418160        -1.084847        -0.624211
 C         3.419046         0.148778        -0.487737
 C         3.810056        -0.027804         1.065804
 C         2.363637         0.455787         1.279788
 O         1.612860         0.473425         2.485272
 C         2.263531         1.109833        -0.115941
 O         1.811093         2.349236        -0.546896
 H        -0.385049         0.911121         0.308445
 H        -0.560210        -0.660960        -0.515700
 H        -0.476407        -0.516940         1.229781
 H         2.671538        -2.085689        -0.190817
 H         1.911881        -1.332365        -1.640401
 H         4.172955         0.308286        -1.196763
 H         4.067744        -0.998639         1.475176
 H         4.520774         0.721072         1.271683
 H         2.059581         1.027056         3.115291
 H         1.502541         2.831359         0.243893
