19
Iteration:  4355charge 0 multiplicity 1
 C        -0.142491        -0.190965         0.233314
 C         1.311491         0.133292         0.003381
 C         2.102281        -0.300824        -1.244859
 C         3.296355         0.529453        -0.575879
 C         3.760763        -0.299806         0.465350
 C         2.315679        -0.019103         1.200057
 O         2.121766        -0.394424         2.530700
 C         2.193259         1.253129         0.375426
 O         1.935992         2.604411         0.444896
 H        -0.287611        -0.595927         1.242576
 H        -0.817666         0.672028         0.250721
 H        -0.523521        -1.039400        -0.398200
 H         2.413996        -1.318086        -1.260586
 H         1.740688         0.028416        -2.203000
 H         3.988471         1.145949        -1.094657
 H         4.199611        -1.281974         0.368456
 H         4.547011         0.155888         1.153508
 H         1.173365        -0.354198         2.738534
 H         2.798646         2.917354         0.700404
