19
Iteration:   644
 C        -0.072853        -0.182589         0.244847
 C         1.480119        -0.115751         0.097284
 C         2.355738        -0.975885        -0.762376
 C         3.498383         0.164182        -0.383441
 C         3.704503        -0.106568         1.153954
 C         2.333318         0.477777         1.350750
 O         1.709560         0.599403         2.592963
 C         2.308295         1.144216        -0.012333
 O         1.709875         2.225998        -0.651202
 H        -0.454996         0.345761         1.142967
 H        -0.568272         0.137966        -0.669423
 H        -0.326676        -1.226611         0.380162
 H         2.538597        -1.967283        -0.421970
 H         1.823141        -1.093687        -1.777437
 H         4.363583         0.543878        -1.048626
 H         3.813553        -1.238467         1.301005
 H         4.477348         0.449221         1.687522
 H         2.254585        -0.067604         3.099490
 H         2.267116         3.017014        -0.464859
