19
Iteration:   899
 C        -0.082723        -0.388304         0.242165
 C         1.451972        -0.081397         0.151627
 C         2.375226        -0.872159        -0.783893
 C         3.463783         0.198767        -0.452666
 C         3.714056        -0.218756         1.087483
 C         2.284548         0.294980         1.397334
 O         1.708491         0.767434         2.628683
 C         2.253812         1.150014         0.001362
 O         1.782586         2.296587        -0.584719
 H        -0.612693         0.102917         1.028715
 H        -0.576571        -0.226391        -0.703708
 H        -0.183918        -1.464624         0.410018
 H         2.510415        -1.966805        -0.588364
 H         1.936146        -0.743359        -1.822615
 H         4.380188         0.269819        -1.027355
 H         3.885982        -1.274615         1.205709
 H         4.491144         0.344017         1.609263
 H         2.441928         1.194718         3.055686
 H         2.527783         2.716633        -1.021351
