19
Iteration:   866charge 0 multiplicity 1
 C        -0.087247        -0.156436         0.360278
 C         1.439205        -0.140380         0.239004
 C         2.384711        -0.883707        -0.784474
 C         3.424415         0.188935        -0.371785
 C         3.703008         0.024511         1.102431
 C         2.341860         0.520498         1.386912
 O         1.734207         0.280817         2.618623
 C         2.185931         1.169586        -0.019181
 O         1.860563         2.201866        -0.795262
 H        -0.403688         0.819974         0.651357
 H        -0.572973        -0.301512        -0.590946
 H        -0.438369        -0.904572         1.074054
 H         2.565678        -1.971808        -0.764911
 H         1.946138        -0.542772        -1.752657
 H         4.306109         0.230062        -1.009471
 H         3.820716        -0.953022         1.535436
 H         4.525336         0.668079         1.404481
 H         1.554972         1.104447         3.158470
 H         2.670222         2.406541        -1.272753
