19
Iteration:  1325
 C        -0.049481        -0.476802         0.117960
 C         1.416523        -0.246008         0.162036
 C         2.353771        -0.904845        -0.844149
 C         3.369243         0.109993        -0.382391
 C         3.766610        -0.140649         1.069711
 C         2.413341         0.504067         1.394524
 O         1.879299         0.934035         2.642879
 C         2.172819         1.074373         0.004209
 O         1.739348         2.247160        -0.520975
 H        -0.685615         0.410214         0.244965
 H        -0.128548        -0.771306        -0.931804
 H        -0.356207        -1.280325         0.838201
 H         2.808121        -1.991228        -0.757003
 H         1.827029        -0.502088        -1.760222
 H         4.224398         0.446749        -0.990061
 H         3.790579        -1.211655         1.386196
 H         4.609391         0.431953         1.415304
 H         0.976942         0.615292         2.694066
 H         1.922011         2.887250         0.217132
