19
Iteration:  1512
 C        -0.037770        -0.344469         0.249174
 C         1.472565        -0.230319         0.194546
 C         2.377519        -1.092031        -0.692916
 C         3.359647         0.116166        -0.531433
 C         3.821645         0.072518         0.980955
 C         2.324724         0.391723         1.323646
 O         1.814603         0.914593         2.537453
 C         2.241068         1.052372        -0.035915
 O         1.768683         2.227710        -0.425488
 H        -0.481626         0.112358         1.111857
 H        -0.567769         0.155520        -0.526677
 H        -0.369724        -1.354378         0.172890
 H         2.665534        -2.073686        -0.241625
 H         1.840065        -1.276842        -1.630510
 H         4.061855         0.236251        -1.320198
 H         4.497480        -0.784213         1.215976
 H         4.408366         0.920504         1.057433
 H         0.955433         0.557846         2.825506
 H         1.150714         2.612708         0.253149
