19
Iteration:  4060charge 0 multiplicity 1
 C        -0.166119        -0.247193         0.158225
 C         1.341461        -0.090757        -0.036825
 C         2.088901        -0.524802        -1.249581
 C         3.302442         0.444373        -0.660218
 C         3.853373        -0.288380         0.566198
 C         2.437562         0.031834         1.270475
 O         2.088857         0.123170         2.626931
 C         2.192012         1.130907         0.273980
 O         1.853434         2.572229         0.471039
 H        -0.651162        -0.970948        -0.493415
 H        -0.393967        -0.565277         1.181118
 H        -0.672037         0.744017        -0.054516
 H         2.329066        -1.566358        -1.553831
 H         1.728894         0.038273        -2.136123
 H         4.008101         0.997544        -1.422085
 H         4.081220        -1.396468         0.474613
 H         4.646599         0.177259         1.227590
 H         1.134848        -0.105746         2.751569
 H         2.324548         3.008489         1.183488
