19
Iteration:  3245
 C        -0.120616        -0.471318         0.362106
 C         1.299916        -0.047806         0.206065
 C         2.152052        -0.755399        -0.912469
 C         3.250791         0.290505        -0.591238
 C         3.701261        -0.187351         0.812465
 C         2.411688         0.324472         1.251248
 O         2.120409         0.403503         2.613185
 C         2.224462         1.200360         0.079240
 O         1.930937         2.509368        -0.162312
 H        -0.508725        -0.673882        -0.594295
 H        -0.030768        -1.554459         0.752481
 H        -0.782518         0.149048         0.918481
 H         2.553413        -1.762417        -0.869176
 H         1.544562        -0.486880        -1.820581
 H         3.954079         0.623982        -1.345663
 H         4.060460        -1.237963         0.837419
 H         4.657618         0.322812         1.300992
 H         1.191695         0.232588         2.817103
 H         1.715275         2.517549        -1.114410
