19
Iteration:   289
 C        -0.046375        -0.654011         0.405769
 C         1.314762        -0.153706         0.183128
 C         2.223346        -0.886345        -0.724455
 C         3.309235         0.028281        -0.512655
 C         3.748915        -0.177805         0.996875
 C         2.324722         0.426316         1.229395
 O         1.560321         0.961484         2.290629
 C         2.212722         1.085913        -0.053937
 O         2.348600         2.473379        -0.181421
 H        -0.706403         0.191974         0.386791
 H        -0.273798        -1.214095        -0.471639
 H        -0.222533        -1.318816         1.226137
 H         2.295867        -1.989884        -0.629722
 H         1.761074        -0.723057        -1.822126
 H         4.169189         0.210015        -1.278589
 H         4.113484        -1.006608         1.552374
 H         4.451879         0.696348         1.154714
 H         1.429593         0.198713         2.979602
 H         1.598276         2.960411        -0.565702
