19
Iteration:  3706charge 0 multiplicity 1
 C        -0.147238        -0.186358         0.199481
 C         1.390686        -0.167476         0.081922
 C         2.183310        -0.690942        -1.121762
 C         3.228592         0.386330        -0.622106
 C         3.830426        -0.211722         0.802277
 C         2.471400         0.177380         1.213890
 O         2.041409         0.331903         2.512822
 C         2.194693         1.147600         0.116599
 O         1.842289         2.419416         0.328722
 H        -0.537570        -0.374316         1.223197
 H        -0.622354         0.831208        -0.182179
 H        -0.596807        -0.880601        -0.491231
 H         2.505554        -1.702263        -0.991714
 H         1.670772        -0.627610        -2.086229
 H         3.908269         0.725793        -1.474444
 H         4.044674        -1.238048         1.031638
 H         4.647643         0.560776         1.248267
 H         2.155809        -0.513887         2.972144
 H         1.071935         2.706051        -0.168064
