19
Iteration:  2173charge 0 multiplicity 1
 C        -0.039304        -0.424149         0.461544
 C         1.342022        -0.148633         0.193950
 C         2.286670        -1.032559        -0.634146
 C         3.291874         0.091101        -0.565556
 C         3.713686         0.145241         1.020853
 C         2.285618         0.484447         1.369858
 O         1.963802         0.549288         2.660939
 C         2.166305         1.123571        -0.094043
 O         1.948316         2.395417        -0.730185
 H        -0.648830         0.478533         0.661664
 H        -0.603667        -0.942538        -0.326264
 H        -0.206796        -0.998532         1.365441
 H         2.627955        -2.012023        -0.253805
 H         1.958044        -1.270745        -1.686781
 H         3.870568         0.329989        -1.462867
 H         3.923149        -0.981647         1.226708
 H         4.247733         0.927931         1.484056
 H         2.524005         1.236825         3.119124
 H         1.355813         2.221025        -1.483701
