19
Iteration:  3137charge 0 multiplicity 1
 C        -0.165479        -0.388260         0.323994
 C         1.410703        -0.122157         0.157078
 C         2.219385        -0.822604        -0.902132
 C         3.316729         0.195846        -0.636743
 C         3.792912        -0.122271         0.850990
 C         2.393862         0.271796         1.226745
 O         2.017365         0.531341         2.592431
 C         2.125961         1.119570         0.054202
 O         1.808891         2.482237        -0.163004
 H        -0.736586         0.605575         0.381341
 H        -0.402084        -0.970862        -0.657787
 H        -0.314478        -1.134137         1.104845
 H         2.386719        -1.944997        -0.838054
 H         1.817489        -0.719069        -1.933234
 H         4.013544         0.556858        -1.404137
 H         4.041312        -1.182665         1.034927
 H         4.511708         0.533915         1.315387
 H         2.877006         0.639001         3.058717
 H         1.653791         2.788156         0.748947
