19
Iteration:  4517
 C        -0.202697        -0.282874         0.076618
 C         1.234569         0.002462        -0.059692
 C         2.103602        -0.198312        -1.284909
 C         3.231021         0.661032        -0.683925
 C         3.751358        -0.366565         0.559638
 C         2.371803        -0.074289         1.068809
 O         2.025989        -0.119299         2.446904
 C         2.203030         1.160467         0.346533
 O         2.172735         2.550623         0.838952
 H        -0.548629        -1.234956        -0.431394
 H        -0.241002        -0.593233         1.161683
 H        -0.897344         0.555997        -0.161979
 H         2.113189        -1.342516        -1.459156
 H         1.595085         0.309360        -2.134348
 H         3.778342         1.387286        -1.206343
 H         3.991236        -1.353007         0.202835
 H         4.572830         0.055591         1.233672
 H         2.137066        -1.019505         2.738063
 H         2.218284         2.473685         1.798059
