19
Iteration:  3466charge 0 multiplicity 1
 C         0.060868        -0.300093         0.572595
 C         1.429060        -0.089777         0.057066
 C         2.263156        -0.765047        -1.071877
 C         3.342485         0.318514        -0.576783
 C         3.772142        -0.185873         0.775833
 C         2.339280         0.245895         1.311358
 O         1.831378         0.331441         2.523557
 C         2.170977         1.210532         0.083593
 O         1.879456         2.494989        -0.097312
 H        -0.066288        -1.092208         1.363330
 H        -0.228832         0.724705         0.833505
 H        -0.671787        -0.566556        -0.175226
 H         2.482206        -1.858398        -1.051794
 H         1.819666        -0.545568        -2.071643
 H         4.084813         0.741748        -1.274977
 H         3.974715        -1.253285         0.814377
 H         4.682620         0.391643         1.201875
 H         1.254301        -0.448089         2.692259
 H         0.966225         2.447032        -0.395528
