19
Iteration:  2962charge 0 multiplicity 1
 C        -0.145578        -0.551438         0.323431
 C         1.331615        -0.264867         0.100930
 C         2.262279        -0.878271        -0.926968
 C         3.363120         0.207343        -0.652915
 C         3.775679        -0.104398         0.869574
 C         2.347218         0.274593         1.204729
 O         1.935511         0.807858         2.555407
 C         2.153603         1.084033         0.014043
 O         1.883604         2.449079        -0.029536
 H        -0.510345        -1.277500        -0.437316
 H        -0.564722        -0.823912         1.360312
 H        -0.714249         0.346943         0.066208
 H         2.595020        -1.923679        -0.698176
 H         1.946788        -0.573285        -1.933690
 H         4.099734         0.408699        -1.448825
 H         4.222012        -1.219293         1.088414
 H         4.534435         0.483948         1.398191
 H         2.605131         1.496733         2.649909
 H         1.821103         2.738684         0.918899
