19
Iteration:  3188charge 0 multiplicity 1
 C        -0.083225        -0.315355         0.522925
 C         1.390130        -0.197625         0.078331
 C         2.219804        -0.787837        -0.947574
 C         3.357342         0.212286        -0.624873
 C         3.836643        -0.176492         0.777678
 C         2.401938         0.193849         1.199475
 O         1.880030         0.583365         2.414944
 C         2.179324         1.083812         0.003631
 O         1.838627         2.412243         0.145598
 H        -0.521953         0.530298         0.110476
 H        -0.535143        -1.224348         0.146798
 H        -0.108151        -0.150842         1.615649
 H         2.614949        -1.791749        -0.837515
 H         1.792582        -0.638805        -1.950318
 H         4.147143         0.550959        -1.332443
 H         4.216346        -1.202486         0.753866
 H         4.485270         0.714652         1.171734
 H         1.858307         1.575592         2.338792
 H         1.129871         2.515135        -0.518249
