19
Iteration:   917
 C        -0.076497        -0.467667         0.202839
 C         1.390529        -0.228217         0.142861
 C         2.366115        -0.962912        -0.818293
 C         3.433547         0.075802        -0.366055
 C         3.653620        -0.171320         1.093848
 C         2.319138         0.505241         1.277841
 O         1.789018         0.853041         2.472473
 C         2.242647         1.099281        -0.027868
 O         1.813775         2.343848        -0.386871
 H        -0.435889         0.036271         1.147541
 H        -0.631510         0.051433        -0.626226
 H        -0.331361        -1.537312         0.136306
 H         2.693802        -2.001148        -0.632725
 H         2.126879        -0.813090        -1.927159
 H         4.149385         0.372289        -1.081387
 H         3.728658        -1.178410         1.592530
 H         4.446541         0.451447         1.491613
 H         2.462734         1.201944         3.052321
 H         2.385714         3.035478        -0.020501
