19
Iteration:  2904charge 0 multiplicity 1
 C         0.026209        -0.344030         0.572058
 C         1.464819        -0.035735         0.128192
 C         2.239790        -0.858345        -0.853263
 C         3.352063         0.176827        -0.605489
 C         3.822630        -0.103438         0.913638
 C         2.415369         0.387564         1.314154
 O         1.713884         0.341553         2.497362
 C         2.239061         1.228944         0.010945
 O         1.717858         2.395415        -0.407273
 H        -0.699959         0.172519        -0.082376
 H        -0.249640        -1.409920         0.359669
 H        -0.339994        -0.108753         1.626652
 H         2.421937        -1.956806        -0.885466
 H         1.866660        -0.681554        -1.885831
 H         4.238755         0.421576        -1.219406
 H         4.111510        -1.170334         1.261195
 H         4.589380         0.617872         1.167015
 H         2.285514         0.777350         3.170808
 H         2.335226         3.088997        -0.154016
