19
Iteration:  2963charge 0 multiplicity 1
 C        -0.154706        -0.551388         0.321178
 C         1.325977        -0.262199         0.098645
 C         2.265400        -0.884975        -0.924346
 C         3.366640         0.210897        -0.654259
 C         3.779890        -0.106268         0.868073
 C         2.351428         0.272302         1.204560
 O         1.935523         0.811435         2.561293
 C         2.150755         1.078913         0.015350
 O         1.885554         2.453086        -0.025519
 H        -0.482882        -1.293716        -0.444911
 H        -0.538894        -0.816737         1.345882
 H        -0.693331         0.332738         0.018009
 H         2.558517        -1.933159        -0.729132
 H         1.928121        -0.567953        -1.908760
 H         4.085803         0.378244        -1.453930
 H         4.219220        -1.198377         1.084092
 H         4.577023         0.502894         1.377953
 H         2.598073         1.506405         2.640134
 H         1.782529         2.742354         0.920562
