19
Iteration:  1619
 C        -0.082699        -0.624912         0.440225
 C         1.359645        -0.236022         0.168471
 C         2.241593        -0.977796        -0.794467
 C         3.387906         0.155216        -0.512067
 C         3.687362         0.036201         1.013974
 C         2.266877         0.450644         1.315152
 O         1.871311         0.854081         2.648514
 C         2.164139         1.120186        -0.022364
 O         2.066716         2.367225        -0.653355
 H        -0.802523         0.178192         0.580644
 H        -0.314904        -1.394911        -0.373207
 H        -0.064989        -1.019053         1.517172
 H         2.647132        -2.002090        -0.841743
 H         1.881316        -0.791145        -1.790692
 H         3.921123         0.451283        -1.325265
 H         4.148513        -0.861595         1.425612
 H         4.158111         0.978330         1.442122
 H         2.202713         0.132481         3.246216
 H         1.122959         2.686280        -0.549206
