19
Iteration:  2542charge 0 multiplicity 1
 C         0.020142        -0.578553         0.579671
 C         1.398860        -0.191403         0.158392
 C         2.287815        -0.885501        -0.941383
 C         3.343307         0.131108        -0.529795
 C         3.697830        -0.131357         1.017758
 C         2.346923         0.442739         1.298659
 O         1.748598         0.670410         2.507027
 C         2.126635         1.179553        -0.078150
 O         2.008145         2.484595        -0.369224
 H        -0.038617        -1.378691         1.386153
 H        -0.629677         0.215207         1.051729
 H        -0.650854        -1.081405        -0.227255
 H         2.518162        -1.971461        -0.677368
 H         2.060179        -0.688486        -2.005019
 H         4.243133         0.246162        -1.186596
 H         3.898539        -1.190295         1.312829
 H         4.517276         0.501889         1.338195
 H         1.685971         1.633694         2.633059
 H         1.829146         2.610383        -1.321769
