19
Iteration:  4374
 C        -0.107585        -0.161329         0.314574
 C         1.348196         0.052654         0.000420
 C         2.114859        -0.277032        -1.277658
 C         3.194979         0.587543        -0.636740
 C         3.695761        -0.306065         0.678103
 C         2.398842        -0.007851         1.208398
 O         2.140545        -0.509575         2.497744
 C         2.186959         1.233775         0.334497
 O         1.947050         2.680837         0.358521
 H        -0.442786         0.026346         1.376143
 H        -0.598195         0.588820        -0.321616
 H        -0.396050        -1.186076         0.107149
 H         2.326158        -1.337163        -1.520435
 H         1.589829         0.329163        -2.033844
 H         4.000832         1.132462        -1.204418
 H         3.924990        -1.354805         0.424944
 H         4.634746         0.041265         1.252318
 H         1.187926        -0.647658         2.472427
 H         2.595386         3.155561         0.875438
