19
Iteration:  2104charge 0 multiplicity 1
 C        -0.003109        -0.390128         0.646701
 C         1.409867        -0.311270         0.153677
 C         2.424477        -1.065035        -0.816604
 C         3.452807         0.125266        -0.597085
 C         3.763678        -0.109452         0.979010
 C         2.372292         0.434311         1.215598
 O         1.762874         0.986889         2.400404
 C         2.102143         1.028082        -0.160766
 O         1.809548         2.309816        -0.226271
 H        -0.405990         0.611942         0.767964
 H        -0.695281        -0.925700        -0.017888
 H        -0.067256        -0.841887         1.710000
 H         2.627446        -2.146786        -0.712728
 H         2.007832        -1.003247        -1.845791
 H         4.076335         0.023722        -1.443579
 H         3.858390        -1.142602         1.315960
 H         4.435275         0.611114         1.545415
 H         1.764466         1.962116         2.329344
 H         1.175330         2.535426        -0.913073
