19
Iteration:  4201
 C        -0.103097        -0.210646         0.388347
 C         1.369613        -0.007186        -0.002473
 C         2.161304        -0.339278        -1.274571
 C         3.302770         0.495875        -0.635973
 C         3.664492        -0.318661         0.656481
 C         2.313521         0.026210         1.204710
 O         2.037563        -0.221008         2.501469
 C         2.245422         1.275628         0.305693
 O         1.887814         2.604710         0.322658
 H        -0.575174         0.745461         0.078380
 H        -0.617163        -0.885237        -0.311514
 H        -0.265843        -0.517664         1.450441
 H         2.594939        -1.363328        -1.453577
 H         1.719849         0.033887        -2.230485
 H         4.128492         0.914697        -1.336547
 H         3.775000        -1.320570         0.312867
 H         4.465039         0.129745         1.381839
 H         2.260222        -1.113221         2.873931
 H         2.458504         3.132267         0.927196
