19
Iteration:  1157
 C        -0.107321        -0.530302         0.148534
 C         1.350184        -0.146960         0.097370
 C         2.350866        -0.851029        -0.782087
 C         3.480787         0.084339        -0.371250
 C         3.830982        -0.072228         1.093502
 C         2.285043         0.353582         1.314715
 O         1.774894         0.974210         2.463057
 C         2.219617         1.040686        -0.043955
 O         1.833729         2.277876        -0.340819
 H        -0.630910         0.150672         0.849646
 H        -0.599854        -0.597823        -0.839478
 H        -0.225740        -1.490149         0.638909
 H         2.375951        -1.974489        -0.397743
 H         2.189466        -0.816614        -1.853456
 H         4.293718         0.343228        -0.944815
 H         4.060201        -1.078676         1.417725
 H         4.459700         0.612696         1.589573
 H         1.099254         0.342242         2.738460
 H         2.514678         2.919445        -0.071975
