19
Iteration:  4148
 C        -0.044053        -0.159208         0.371386
 C         1.393268        -0.063945         0.095872
 C         2.131828        -0.327731        -1.211208
 C         3.327465         0.447499        -0.645039
 C         3.778153        -0.363807         0.574459
 C         2.446310         0.000816         1.157371
 O         1.921621        -0.027730         2.480179
 C         2.246686         1.244585         0.249565
 O         1.772311         2.503607         0.374430
 H        -0.284249        -0.070876         1.420112
 H        -0.608519         0.514970        -0.261139
 H        -0.288985        -1.190461        -0.019272
 H         2.374855        -1.355890        -1.597821
 H         1.640592         0.198964        -2.065163
 H         4.139996         1.030746        -1.177706
 H         4.078665        -1.428963         0.552355
 H         4.526163         0.199457         1.151695
 H         1.686735        -0.880340         2.938399
 H         2.472157         2.988058         0.860760
