19
Iteration:  2020
 C        -0.137738        -0.539139         0.308965
 C         1.394652        -0.237974         0.291425
 C         2.319294        -1.063310        -0.636364
 C         3.313919         0.131242        -0.486791
 C         3.776822         0.036772         0.902420
 C         2.288422         0.391262         1.304933
 O         1.987582         0.921824         2.567472
 C         2.149171         1.046257        -0.093453
 O         1.837920         2.347254        -0.468148
 H        -0.413432        -0.143659         1.292944
 H        -0.758383         0.071791        -0.395351
 H        -0.428739        -1.577520         0.293734
 H         2.671160        -1.981123        -0.141412
 H         1.808716        -1.109579        -1.615852
 H         3.909958         0.420035        -1.342620
 H         4.354186        -0.880252         1.339022
 H         4.423476         0.805806         1.149185
 H         2.767195         1.534372         2.663659
 H         1.401486         2.347188        -1.353130
