19
Iteration:  3565charge 0 multiplicity 1
 C        -0.163748        -0.293185         0.191477
 C         1.359784        -0.095048         0.071039
 C         2.176832        -0.769119        -1.008540
 C         3.285160         0.278269        -0.606863
 C         3.835397        -0.132925         0.773062
 C         2.382945         0.138503         1.237099
 O         2.040273         0.436214         2.582232
 C         2.158838         1.147839         0.018688
 O         1.873702         2.475386         0.239953
 H        -0.889642         0.574664        -0.014445
 H        -0.391323        -1.124551        -0.561145
 H        -0.316887        -0.722013         1.169254
 H         2.340090        -1.819110        -0.629647
 H         2.003596        -0.731301        -2.107670
 H         3.937524         0.832486        -1.338982
 H         4.229802        -1.130514         0.870374
 H         4.495329         0.623174         1.280983
 H         2.406672        -0.273260         3.119326
 H         1.342301         2.863921        -0.466833
