19
Iteration:  4073charge 0 multiplicity 1
 C        -0.136023        -0.196629         0.116101
 C         1.345848        -0.071209         0.072851
 C         2.173920        -0.464151        -1.217474
 C         3.190009         0.456951        -0.667480
 C         3.726444        -0.275388         0.625537
 C         2.432275         0.038688         1.199865
 O         2.153946         0.090675         2.632058
 C         2.180222         1.201808         0.204163
 O         1.884459         2.449904         0.463796
 H        -0.300408        -1.157523        -0.361175
 H        -0.592046        -0.212016         1.105972
 H        -0.674341         0.644340        -0.417096
 H         2.386343        -1.522984        -1.260576
 H         1.614526        -0.184593        -2.124384
 H         4.060584         0.918716        -1.250559
 H         4.167559        -1.330878         0.456978
 H         4.519583         0.367252         0.872056
 H         1.195421         0.009938         2.650674
 H         2.265003         2.496651         1.385347
