19
Iteration:  2006charge 0 multiplicity 1
 C        -0.102437        -0.457102         0.509025
 C         1.326652        -0.173001         0.200069
 C         2.306311        -1.009787        -0.679157
 C         3.401580         0.076208        -0.567781
 C         3.788495         0.053476         0.996565
 C         2.380631         0.481686         1.286268
 O         1.920329         0.815609         2.579989
 C         2.162997         1.065417        -0.079569
 O         1.778750         2.305672        -0.546677
 H        -0.672301        -0.278978         1.395832
 H        -0.617649        -0.038065        -0.344671
 H        -0.186715        -1.537557         0.230122
 H         2.518158        -2.052237        -0.420140
 H         2.052703        -1.128313        -1.753884
 H         4.181903         0.164554        -1.247916
 H         4.102765        -1.011283         1.322871
 H         4.445846         0.930334         1.252887
 H         2.558631         1.355952         3.064574
 H         1.456207         2.190066        -1.446845
