19
Iteration:  2200charge 0 multiplicity 1
 C        -0.144330        -0.288457         0.439158
 C         1.341036        -0.219078         0.239919
 C         2.376130        -1.038621        -0.659666
 C         3.359490         0.147944        -0.484120
 C         3.822425         0.019842         0.947903
 C         2.366651         0.455991         1.371648
 O         1.899888         0.673122         2.585590
 C         2.156001         1.030483        -0.126166
 O         1.827499         2.294138        -0.619731
 H        -0.452071         0.592907         0.999607
 H        -0.749538        -0.287195        -0.469322
 H        -0.503991        -1.155375         1.049651
 H         2.778233        -2.025798        -0.375273
 H         2.041681        -1.123472        -1.679680
 H         4.006215         0.416905        -1.339061
 H         4.338018        -0.915703         1.077291
 H         4.408036         0.913730         1.416182
 H         2.188688         1.507556         3.031906
 H         1.177949         2.267234        -1.341539
