19
Iteration:  2809
 C        -0.080783        -0.216668         0.231391
 C         1.451861        -0.105104         0.224527
 C         2.327917        -0.961364        -0.879750
 C         3.390671         0.138339        -0.622497
 C         3.860985        -0.187889         0.836651
 C         2.462716         0.352393         1.330089
 O         1.813243         0.631675         2.610285
 C         2.272416         1.108140        -0.014635
 O         1.556909         2.294683        -0.183983
 H        -0.497815        -0.251389         1.256933
 H        -0.666864         0.673508        -0.183056
 H        -0.532039        -1.102717        -0.165855
 H         2.728762        -1.986090        -0.727528
 H         1.693234        -1.036343        -1.778339
 H         4.264211         0.412394        -1.255875
 H         4.225643        -1.195637         1.027021
 H         4.615481         0.553334         1.201321
 H         2.124502         1.538437         2.863127
 H         2.082339         2.999292         0.245755
