19
Iteration:   854charge 0 multiplicity 1
 C        -0.098393        -0.047808         0.438696
 C         1.387735        -0.129044         0.157307
 C         2.359101        -0.924858        -0.762074
 C         3.490763         0.166461        -0.418112
 C         3.738499         0.119598         1.171583
 C         2.266255         0.514959         1.350354
 O         1.747780         0.195590         2.624024
 C         2.204116         1.036378        -0.101507
 O         1.869506         2.223415        -0.793343
 H        -0.378099         0.969220         0.642262
 H        -0.582699        -0.397127        -0.463923
 H        -0.478916        -0.620124         1.268306
 H         2.790110        -1.929240        -0.524116
 H         2.188852        -0.968013        -1.893282
 H         4.106930         0.563728        -1.178575
 H         4.017776        -0.842988         1.570360
 H         4.318256         0.889430         1.607977
 H         1.500007         0.960718         3.106645
 H         2.656532         2.789527        -0.901974
