19
Iteration:   462charge 0 multiplicity 1
 C        -0.133520        -0.580559         0.146767
 C         1.314995        -0.114044         0.053049
 C         2.271843        -0.946823        -0.805467
 C         3.337300         0.032302        -0.394769
 C         3.690569        -0.164368         1.043564
 C         2.372522         0.544896         1.436298
 O         1.758142         0.766837         2.611456
 C         2.256918         1.126835         0.066842
 O         2.129265         2.464780        -0.497377
 H        -0.712969        -0.273502         1.085587
 H        -0.528193        -0.174707        -0.823081
 H        -0.098935        -1.717342         0.186000
 H         2.525504        -2.018161        -0.426806
 H         2.274133        -1.039824        -1.856209
 H         4.291549         0.366253        -0.936090
 H         3.981756        -1.191717         1.230411
 H         4.608430         0.428307         1.385254
 H         1.152115         1.478853         2.652715
 H         1.187096         2.637157        -0.307359
