19
Iteration:  2846
 C        -0.126947        -0.131086         0.252517
 C         1.438089        -0.186523         0.150865
 C         2.291145        -0.844612        -0.885004
 C         3.364468         0.273400        -0.529761
 C         3.748393        -0.078490         0.960184
 C         2.363777         0.314524         1.358142
 O         2.077392         0.359702         2.750087
 C         2.155025         1.092953         0.003553
 O         1.604865         2.262640        -0.464828
 H        -0.248649         0.737879         0.955272
 H        -0.530310         0.071395        -0.718647
 H        -0.439289        -1.092434         0.729042
 H         2.636957        -1.889030        -0.794235
 H         1.808970        -0.611518        -1.861346
 H         4.220559         0.668315        -1.069060
 H         4.092255        -1.008518         1.236735
 H         4.521890         0.687342         1.257436
 H         2.015655         1.284276         3.047177
 H         2.389360         2.861223        -0.499500
