19
Iteration:  2113
 C         0.021493        -0.383556         0.693930
 C         1.445438        -0.255400         0.174784
 C         2.373470        -1.009741        -0.842354
 C         3.430466         0.045298        -0.588972
 C         3.740577        -0.044798         0.951717
 C         2.321615         0.389619         1.277278
 O         1.716521         0.927907         2.392400
 C         2.147142         0.999309        -0.113369
 O         1.827912         2.337356        -0.321708
 H        -0.431374         0.622100         0.702512
 H        -0.495493        -1.038223        -0.029501
 H        -0.005230        -0.836238         1.723949
 H         2.807369        -1.958434        -0.461009
 H         1.961545        -1.100272        -1.837524
 H         4.125311         0.493670        -1.358678
 H         3.861359        -1.026515         1.159017
 H         4.664356         0.395365         1.445244
 H         2.008366         1.847505         2.522174
 H         1.224539         2.439150        -1.067284
