19
Iteration:  4922charge 0 multiplicity 1
 C        -0.233708        -0.210775         0.157255
 C         1.282063         0.110730         0.007638
 C         1.996483         0.092883        -1.332704
 C         3.270134         0.695731        -0.613029
 C         3.720427        -0.397992         0.454298
 C         2.402912        -0.123460         1.054894
 O         2.088876        -0.584202         2.342021
 C         2.248180         1.271208         0.419206
 O         2.190383         2.555760         0.970800
 H        -0.811010         0.685391        -0.166101
 H        -0.504698        -1.110971        -0.425274
 H        -0.552087        -0.357516         1.207883
 H         1.981937        -1.013530        -1.683033
 H         1.532921         0.815116        -2.058971
 H         4.176513         1.159994        -1.081610
 H         3.931958        -1.472579         0.221576
 H         4.670310        -0.002606         1.021316
 H         1.684598        -1.501474         2.280508
 H         1.404071         2.943080         0.513383
