19
Iteration:  2982
 C        -0.122769        -0.528582         0.156279
 C         1.352538        -0.172256         0.174365
 C         2.183196        -0.898683        -0.910224
 C         3.267435         0.121102        -0.580942
 C         3.837676        -0.098692         0.796674
 C         2.420794         0.290016         1.332611
 O         1.970243         0.788121         2.499965
 C         2.158303         1.071832         0.001559
 O         1.913027         2.453488         0.039509
 H        -0.300743        -1.583189        -0.094319
 H        -0.581439        -0.425055         1.231074
 H        -0.934638         0.032334        -0.348079
 H         2.571170        -1.951891        -0.666173
 H         1.744691        -0.675999        -1.919311
 H         4.000099         0.604602        -1.260130
 H         4.429687        -1.072812         1.057835
 H         4.520006         0.661351         1.033502
 H         2.404819         1.619979         2.741551
 H         1.052833         2.479890         0.525234
