19
Iteration:  4323
 C        -0.111684        -0.207984         0.224656
 C         1.369106        -0.056952         0.044625
 C         2.076507        -0.281745        -1.299366
 C         3.293655         0.427270        -0.683779
 C         3.800765        -0.378177         0.539383
 C         2.425146         0.091081         1.153833
 O         2.050695        -0.145058         2.459610
 C         2.223589         1.203918         0.309148
 O         1.860731         2.522942         0.665205
 H        -0.363177        -1.092140         0.784506
 H        -0.472865         0.705543         0.734844
 H        -0.644125        -0.200191        -0.792369
 H         2.308270        -1.287128        -1.701087
 H         1.472642         0.351354        -1.975863
 H         4.060886         0.972647        -1.181194
 H         3.947930        -1.459512         0.450073
 H         4.598883         0.209921         1.080261
 H         1.156054         0.226514         2.568205
 H         2.634427         2.905315         1.167115
