19
Iteration:    60charge 0 multiplicity 1
 C        -0.148634        -0.725450         0.426529
 C         1.255542        -0.117045         0.023403
 C         2.327783        -1.022550        -0.841105
 C         3.381587         0.077206        -0.430324
 C         3.575951        -0.118936         1.068212
 C         2.177347         0.340095         1.172935
 O         1.832940         0.955329         2.481267
 C         2.193206         1.148589        -0.204787
 O         2.346237         2.569484        -0.178468
 H        -1.047121        -0.143267         0.798214
 H        -0.427558        -1.309491        -0.503033
 H         0.013938        -1.599260         1.149713
 H         2.543840        -1.936303        -0.378869
 H         2.256142        -1.265723        -1.935238
 H         4.117344         0.438929        -1.196020
 H         4.008734        -1.009254         1.660479
 H         4.301387         0.708858         1.379867
 H         0.916888         0.701000         2.664631
 H         1.510486         3.025217        -0.495709
