19
Iteration:  4515charge 0 multiplicity 1
 C        -0.215572        -0.278908         0.073779
 C         1.230362        -0.015636        -0.036235
 C         2.113898        -0.217881        -1.298387
 C         3.232486         0.662885        -0.679552
 C         3.762845        -0.373657         0.563898
 C         2.353096        -0.052155         1.062923
 O         2.038175        -0.124884         2.448473
 C         2.213391         1.156446         0.346852
 O         2.165671         2.566099         0.844279
 H        -0.652224        -1.182814        -0.454615
 H        -0.283096        -0.649700         1.092203
 H        -0.839509         0.579347        -0.165801
 H         2.116737        -1.289506        -1.486915
 H         1.665891         0.326003        -2.171028
 H         3.769355         1.429034        -1.285434
 H         3.972998        -1.345198         0.165188
 H         4.524049         0.030626         1.210645
 H         2.177160        -0.994967         2.818064
 H         2.212360         2.427047         1.787720
