19
Iteration:   118
 C        -0.078807        -0.251921         0.331101
 C         1.439019        -0.194544         0.136783
 C         2.315214        -0.952099        -0.819724
 C         3.455641         0.072429        -0.437841
 C         3.798099        -0.152108         1.033711
 C         2.353352         0.375512         1.307246
 O         1.606900         0.842743         2.444787
 C         2.318403         1.039791         0.077873
 O         1.850224         2.333958        -0.400825
 H        -0.301436         0.494625         1.112602
 H        -0.693338        -0.000459        -0.564309
 H        -0.313513        -1.235234         0.837808
 H         2.458684        -2.051357        -0.789340
 H         2.055104        -0.602112        -1.784447
 H         4.112492         0.327271        -1.275543
 H         3.812752        -1.250332         1.342385
 H         4.585555         0.548263         1.341698
 H         1.405415         0.154467         3.121956
 H         2.546438         2.519306        -1.026835
