19
Iteration:  1018
 C        -0.080941        -0.530705         0.329390
 C         1.320371        -0.125725        -0.025722
 C         2.318737        -0.946545        -0.847889
 C         3.414365         0.111663        -0.399214
 C         3.694470        -0.172012         1.229459
 C         2.310476         0.417849         1.255988
 O         1.819360         0.784282         2.572836
 C         2.243620         1.108370        -0.092698
 O         1.960962         2.439578        -0.374895
 H        -0.463398         0.015925         1.192989
 H        -0.686145        -0.402629        -0.597219
 H        -0.146220        -1.610627         0.607842
 H         2.278615        -2.043163        -0.705376
 H         2.098679        -0.800056        -1.986311
 H         4.280618         0.321820        -0.953595
 H         3.977423        -1.216810         1.566476
 H         4.370162         0.582047         1.620240
 H         1.114874         1.507271         2.546172
 H         2.239283         2.685847        -1.276459
