19
Iteration:   102charge 0 multiplicity 1
 C        -0.000136        -0.433470         0.424833
 C         1.409908        -0.162950         0.184803
 C         2.287916        -0.922851        -0.892296
 C         3.379197         0.068568        -0.501350
 C         3.783091        -0.250196         1.083548
 C         2.346138         0.397451         1.347526
 O         1.582480         0.929457         2.379444
 C         2.228876         1.079133        -0.074142
 O         1.999779         2.422284        -0.287150
 H        -0.566807         0.382967         0.941426
 H        -0.435468        -0.442972        -0.609927
 H        -0.246108        -1.403747         0.883908
 H         2.486560        -1.940471        -0.550911
 H         1.761961        -0.927461        -1.933484
 H         4.331730         0.308231        -1.023636
 H         4.181266        -1.273293         1.273309
 H         4.606234         0.439880         1.448332
 H         1.120969         0.156786         2.893798
 H         2.418747         2.749004        -1.104035
