19
Iteration:  4085
 C        -0.138708        -0.201897         0.111904
 C         1.309723        -0.052772         0.087393
 C         2.122070        -0.475608        -1.131631
 C         3.321097         0.459206        -0.732928
 C         3.738623        -0.242852         0.617923
 C         2.323032         0.098520         1.215876
 O         2.207016         0.048237         2.529979
 C         2.205131         1.138607         0.188596
 O         1.885623         2.453527         0.511858
 H        -0.478553        -1.225914        -0.081282
 H        -0.667106         0.125894         1.008248
 H        -0.474125         0.371908        -0.796120
 H         2.546741        -1.456664        -1.179493
 H         1.637266        -0.211337        -2.075076
 H         3.868888         1.003057        -1.521863
 H         4.038743        -1.364526         0.663127
 H         4.387253         0.315278         1.225010
 H         1.299314        -0.013954         2.927463
 H         2.000996         2.706469         1.463781
