19
Iteration:  3697charge 0 multiplicity 1
 C        -0.164118        -0.204664         0.187698
 C         1.333178        -0.199940         0.045151
 C         2.164946        -0.665817        -1.070957
 C         3.326090         0.375126        -0.686083
 C         3.864579        -0.155637         0.732011
 C         2.398918         0.103247         1.252253
 O         2.003969         0.318232         2.647860
 C         2.192969         1.139530         0.161059
 O         1.893812         2.495750         0.246956
 H        -0.663164        -0.725762         0.987438
 H        -0.538948         0.813729         0.119557
 H        -0.494108        -0.818439        -0.604354
 H         2.538887        -1.701249        -0.989677
 H         1.583932        -0.595271        -2.008428
 H         3.897065         0.790693        -1.555847
 H         4.154204        -1.215792         0.721164
 H         4.661070         0.497369         1.155841
 H         2.269308        -0.465097         3.153841
 H         1.036841         2.662575        -0.157849
