19
Iteration:  2853charge 0 multiplicity 1
 C        -0.114929        -0.098031         0.313088
 C         1.388167        -0.204217         0.145647
 C         2.354165        -0.844522        -0.936488
 C         3.369033         0.281468        -0.528892
 C         3.718493        -0.043812         0.948264
 C         2.351387         0.304752         1.407397
 O         2.073510         0.331849         2.783520
 C         2.165326         1.084563         0.002443
 O         1.636842         2.280247        -0.500608
 H        -0.620315         0.715202         0.875042
 H        -0.614128        -0.174448        -0.717800
 H        -0.431565        -0.980493         0.832908
 H         2.600944        -1.916123        -0.909355
 H         1.964986        -0.778992        -1.959026
 H         4.135365         0.705649        -1.228212
 H         4.079834        -1.080440         1.250795
 H         4.588703         0.638283         1.235795
 H         2.039474         1.285977         3.038638
 H         2.305622         2.979907        -0.586772
