19
Iteration:   418
 C        -0.106209        -0.075054         0.153674
 C         1.412975        -0.307600         0.109238
 C         2.457233        -1.035443        -0.743231
 C         3.477242         0.046776        -0.350301
 C         3.675244        -0.050350         1.071099
 C         2.232897         0.384200         1.289043
 O         1.866811         0.656260         2.594045
 C         2.265230         1.112040         0.019343
 O         1.761471         2.311707        -0.437106
 H        -0.227617         0.615279         1.040283
 H        -0.468611         0.464557        -0.737230
 H        -0.738249        -0.937371         0.465286
 H         2.633008        -2.094288        -0.543854
 H         2.188618        -0.928761        -1.744792
 H         4.363746         0.157065        -1.068993
 H         4.106670        -0.920287         1.572577
 H         4.279602         0.865509         1.358422
 H         0.966926         0.915238         2.477398
 H         2.067256         2.442213        -1.339789
