19
Iteration:  2305charge 0 multiplicity 1
 C        -0.177655        -0.647834         0.407484
 C         1.340576        -0.233036         0.265036
 C         2.247256        -1.083666        -0.641513
 C         3.304504         0.045268        -0.540062
 C         3.787076         0.107410         0.933614
 C         2.381594         0.493808         1.249696
 O         1.899803         0.917200         2.534619
 C         2.252997         1.053719        -0.127120
 O         1.986686         2.409159        -0.367743
 H        -0.502636        -0.755452         1.484924
 H        -0.868211        -0.080632        -0.303282
 H        -0.099359        -1.663877         0.040777
 H         2.396369        -2.164605        -0.373634
 H         1.882085        -0.901487        -1.702019
 H         3.961984         0.225829        -1.436911
 H         4.149205        -0.792570         1.548283
 H         4.544911         0.898306         1.073000
 H         1.126960         1.499135         2.309126
 H         1.797239         2.663979        -1.298064
