19
Iteration:   389
 C        -0.008802         0.086689         0.202329
 C         1.483649        -0.213872         0.176264
 C         2.373684        -1.029425        -0.803782
 C         3.467787         0.125894        -0.402105
 C         3.762840        -0.128508         1.121140
 C         2.352219         0.399878         1.337065
 O         1.728069         0.689740         2.575213
 C         2.310222         1.046276        -0.012362
 O         1.637044         2.122396        -0.466457
 H        -0.204150         1.074436         0.563508
 H        -0.344942         0.015346        -0.819669
 H        -0.544772        -0.654911         0.771782
 H         2.534014        -2.081980        -0.546381
 H         2.058409        -1.023799        -1.928946
 H         4.227744         0.441615        -1.085203
 H         4.240747        -1.033859         1.494374
 H         4.388060         0.708646         1.531412
 H         0.850405         0.303731         2.326784
 H         2.246820         2.772983        -0.893871
