19
Iteration:   475charge 0 multiplicity 1
 C        -0.131707        -0.661433         0.253237
 C         1.325645        -0.111700         0.023988
 C         2.308044        -0.934829        -0.913140
 C         3.361096         0.093568        -0.399578
 C         3.647002        -0.149197         1.154211
 C         2.327400         0.467666         1.332838
 O         1.742108         0.814087         2.587246
 C         2.237215         1.130893         0.033035
 O         2.191791         2.425048        -0.449913
 H        -0.788937        -0.304246         1.056007
 H        -0.789293        -0.537565        -0.642684
 H        -0.028454        -1.762013         0.260255
 H         2.464825        -1.947352        -0.646314
 H         1.964686        -0.852212        -1.914573
 H         4.157638         0.325941        -1.087825
 H         3.734675        -1.141858         1.598722
 H         4.532296         0.538191         1.372084
 H         1.524210         1.794856         2.501334
 H         1.599051         3.016199         0.059444
