19
Iteration:  3761
 C        -0.018253        -0.226983         0.411385
 C         1.422883        -0.111766         0.009697
 C         2.189489        -0.580710        -1.167456
 C         3.349589         0.365561        -0.551650
 C         3.747743        -0.293465         0.689531
 C         2.423931         0.216651         1.227798
 O         1.967775         0.267967         2.468091
 C         2.182725         1.153793         0.183806
 O         1.821003         2.445126         0.288651
 H        -0.504805         0.748790         0.602872
 H        -0.580695        -0.828290        -0.414530
 H        -0.146172        -0.925593         1.269285
 H         2.303318        -1.635630        -1.300730
 H         1.705457        -0.094846        -2.015204
 H         3.961857         0.914027        -1.309352
 H         3.785513        -1.364995         0.750525
 H         4.699761         0.150368         1.248495
 H         1.286312        -0.392048         2.606608
 H         1.501495         2.708573        -0.593072
