19
Iteration:  4906charge 0 multiplicity 1
 C        -0.183994        -0.037846         0.160341
 C         1.276723         0.194582        -0.039663
 C         2.053269        -0.006438        -1.366013
 C         3.254835         0.642613        -0.666944
 C         3.764660        -0.373393         0.376578
 C         2.384520        -0.217513         1.155122
 O         2.124568        -0.652863         2.470840
 C         2.212509         1.221735         0.490417
 O         2.052016         2.576967         0.936065
 H        -0.797146         0.876355         0.185454
 H        -0.480072        -0.644177        -0.704855
 H        -0.385961        -0.667521         1.034384
 H         2.300276        -0.875360        -1.923752
 H         1.658834         0.615284        -2.151908
 H         3.816728         1.345430        -1.257993
 H         4.198715        -1.287438        -0.094633
 H         4.482562        -0.015666         1.060396
 H         1.612320        -1.495120         2.382510
 H         1.832082         3.220172         0.256116
