19
Iteration:  4986
 C        -0.126685        -0.251648         0.299974
 C         1.281621         0.111705        -0.035971
 C         2.071908         0.153207        -1.365770
 C         3.305929         0.669682        -0.693448
 C         3.677912        -0.442409         0.381187
 C         2.392075        -0.135924         0.983854
 O         1.954056        -0.340536         2.254725
 C         2.198803         1.250353         0.401735
 O         2.142255         2.411980         1.108515
 H        -0.439232        -0.955290        -0.509466
 H        -0.203277        -0.898294         1.171246
 H        -0.846855         0.585900         0.380101
 H         2.121851        -0.821747        -1.893006
 H         1.712619         0.921769        -1.949284
 H         4.231131         1.161003        -1.111352
 H         3.689875        -1.420833        -0.098426
 H         4.607573        -0.016491         0.844316
 H         1.682708        -1.295212         2.292302
 H         2.490917         2.291886         2.000134
