19
Iteration:  1841charge 0 multiplicity 1
 C        -0.004798        -0.380137         0.567943
 C         1.433121        -0.272029         0.205896
 C         2.216266        -1.010029        -0.806098
 C         3.390642         0.033899        -0.513926
 C         3.833149         0.002473         0.974015
 C         2.339148         0.358047         1.219788
 O         1.837698         0.902697         2.387305
 C         2.208919         1.031299        -0.104197
 O         1.751609         2.330656        -0.256919
 H        -0.357751         0.632816         0.996622
 H        -0.630296        -0.670888        -0.306247
 H        -0.010482        -1.176400         1.424146
 H         2.495310        -2.059480        -0.546102
 H         2.146277        -0.923809        -1.931169
 H         4.171973         0.160898        -1.378411
 H         4.251264        -1.007504         1.196514
 H         4.454914         0.806996         1.500563
 H         1.417876         1.772579         2.224413
 H         1.829099         2.537832        -1.214665
