19
Iteration:  4139charge 0 multiplicity 1
 C        -0.061468        -0.181239         0.296344
 C         1.390514        -0.025752         0.067279
 C         2.103259        -0.379073        -1.255324
 C         3.346859         0.497698        -0.622849
 C         3.742594        -0.293402         0.611785
 C         2.386600         0.035217         1.246604
 O         1.994281        -0.005872         2.524248
 C         2.283545         1.175156         0.166164
 O         1.799633         2.456422         0.421332
 H        -0.244778        -0.282396         1.358711
 H        -0.621912         0.706659        -0.031570
 H        -0.527845        -1.091963        -0.159574
 H         2.346817        -1.434648        -1.402543
 H         1.533762         0.064786        -2.082801
 H         4.114880         0.913476        -1.275545
 H         4.115557        -1.333643         0.225426
 H         4.571983         0.179600         1.050851
 H         1.489282        -0.873776         2.664233
 H         2.418288         2.959065         0.992917
