19
Iteration:  1408
 C         0.000433        -0.392588         0.524883
 C         1.457968        -0.166562         0.122757
 C         2.392650        -0.973578        -0.689463
 C         3.389652         0.147721        -0.465876
 C         3.842525        -0.026538         1.007626
 C         2.319688         0.361506         1.232563
 O         1.548267         0.625279         2.402637
 C         2.231502         1.144686        -0.116655
 O         1.837322         2.358139        -0.502189
 H        -0.535828         0.439966         1.067297
 H        -0.576407        -0.765492        -0.372873
 H        -0.090498        -1.147015         1.358155
 H         2.693040        -1.906003        -0.169351
 H         2.109157        -1.084556        -1.762632
 H         4.231141         0.378090        -1.214650
 H         4.098496        -1.090986         1.391400
 H         4.486844         0.907991         1.337885
 H         1.930004         1.429866         2.860672
 H         2.058525         2.932787         0.256756
