19
Iteration:   519charge 0 multiplicity 1
 C        -0.113773        -0.534273         0.443868
 C         1.334567        -0.195846         0.051274
 C         2.374886        -0.983514        -0.869350
 C         3.427181         0.102382        -0.530745
 C         3.755125        -0.185451         1.120108
 C         2.295770         0.430272         1.249900
 O         1.499784         0.858752         2.293344
 C         2.277730         1.087906        -0.018226
 O         2.113762         2.485541        -0.275221
 H        -0.425302         0.316402         1.064086
 H        -0.862233        -0.602972        -0.364692
 H        -0.039500        -1.428746         1.114959
 H         2.677261        -2.008560        -0.536088
 H         2.091793        -1.028739        -1.909150
 H         4.193862         0.415115        -1.204082
 H         3.957151        -1.209241         1.425770
 H         4.545106         0.526446         1.503364
 H         1.941425         0.955834         3.185008
 H         2.077928         2.877539         0.619481
