19
Iteration:  2751charge 0 multiplicity 1
 C        -0.071419        -0.644156         0.506632
 C         1.350734        -0.158629         0.068530
 C         2.264960        -0.919656        -0.882031
 C         3.330557         0.133375        -0.543255
 C         3.771902         0.004954         0.880005
 C         2.305716         0.370174         1.236152
 O         1.734451         0.742893         2.453452
 C         2.167772         1.121465        -0.032300
 O         2.038595         2.440762        -0.223067
 H        -0.154597        -1.698638         0.634166
 H        -0.240952        -0.099109         1.453445
 H        -0.698122        -0.131837        -0.243733
 H         2.525517        -1.978013        -0.661640
 H         1.906566        -0.731735        -1.893895
 H         4.158579         0.381228        -1.182691
 H         4.020871        -1.123991         1.201698
 H         4.519516         0.665985         1.186387
 H         2.518102         0.964405         2.965033
 H         1.825964         2.897694         0.609849
