19
Iteration:   897charge 0 multiplicity 1
 C        -0.071650        -0.382085         0.250486
 C         1.456985        -0.063785         0.164377
 C         2.363302        -0.876901        -0.793385
 C         3.471134         0.221890        -0.448805
 C         3.731356        -0.219078         1.084404
 C         2.286651         0.277644         1.405171
 O         1.698670         0.746062         2.644580
 C         2.247070         1.163111        -0.001493
 O         1.783770         2.290065        -0.608640
 H        -0.621767         0.194916         1.009551
 H        -0.561449        -0.241019        -0.723057
 H        -0.170640        -1.452512         0.416831
 H         2.509759        -1.986052        -0.579193
 H         1.902700        -0.738676        -1.879188
 H         4.306066         0.234681        -1.053130
 H         3.899889        -1.280762         1.282830
 H         4.440376         0.319425         1.641951
 H         2.412166         1.219052         3.061309
 H         2.532327         2.677341        -1.111214
