19
Iteration:  2808
 C        -0.076275        -0.222772         0.232920
 C         1.447313        -0.109214         0.217104
 C         2.329294        -0.958051        -0.880021
 C         3.392823         0.137734        -0.623178
 C         3.858296        -0.183420         0.833371
 C         2.458293         0.358589         1.332760
 O         1.810260         0.639376         2.606537
 C         2.267795         1.105911        -0.016156
 O         1.564560         2.293535        -0.176263
 H        -0.448176        -0.276737         1.251352
 H        -0.655412         0.680945        -0.155796
 H        -0.558460        -1.085512        -0.167592
 H         2.720811        -1.985298        -0.730119
 H         1.705667        -1.060363        -1.772463
 H         4.245163         0.403616        -1.278265
 H         4.259411        -1.245422         1.027229
 H         4.594380         0.521428         1.217860
 H         2.133137         1.534951         2.878875
 H         2.065075         3.002084         0.256342
