19
Iteration:  3194charge 0 multiplicity 1
 C        -0.066479        -0.335747         0.542235
 C         1.363150        -0.208323         0.093142
 C         2.265837        -0.795317        -1.017851
 C         3.328608         0.203074        -0.586384
 C         3.798261        -0.142641         0.775490
 C         2.400846         0.229536         1.158864
 O         1.916479         0.566372         2.445947
 C         2.215410         1.119522        -0.005808
 O         1.836687         2.386610         0.148883
 H        -0.669371         0.595537         0.046996
 H        -0.509746        -1.289043         0.193852
 H        -0.017222        -0.005906         1.607147
 H         2.395904        -1.899648        -0.696731
 H         1.854841        -0.504696        -1.996755
 H         3.986042         0.597736        -1.337626
 H         4.059169        -1.214543         1.005322
 H         4.437244         0.555299         1.131599
 H         1.592781         1.470732         2.298932
 H         1.357977         2.564766        -0.703529
