19
Iteration:   188charge 0 multiplicity 1
 C        -0.070855        -0.095118         0.010005
 C         1.432161        -0.136023         0.319153
 C         2.216973        -0.972044        -0.614488
 C         3.400926         0.111005        -0.543436
 C         3.820189        -0.054225         1.081924
 C         2.367643         0.374498         1.396275
 O         1.866689         0.611852         2.680822
 C         2.323078         1.068903        -0.004505
 O         1.824947         2.250994        -0.600356
 H        -0.531044         0.518697         0.767561
 H        -0.169136         0.466399        -0.897340
 H        -0.597492        -0.996281        -0.043543
 H         2.349440        -2.045661        -0.326602
 H         1.686711        -0.787903        -1.597206
 H         3.866135         0.572748        -1.433096
 H         4.098795        -1.055005         1.276746
 H         4.471991         0.701231         1.491289
 H         1.226557        -0.059818         2.873474
 H         0.864073         2.282930        -0.562763
