19
Iteration:  1775
 C        -0.121071        -0.570056         0.414521
 C         1.320531        -0.173011         0.255156
 C         2.244342        -0.928643        -0.711519
 C         3.309318         0.057219        -0.486066
 C         3.789490         0.032624         1.055617
 C         2.377701         0.474474         1.251544
 O         1.932200         0.779587         2.552592
 C         2.177410         1.161843        -0.087883
 O         1.927644         2.367336        -0.612841
 H        -0.531209        -0.233778         1.445637
 H        -0.741207        -0.278219        -0.454330
 H        -0.263892        -1.726451         0.516890
 H         2.412370        -1.943553        -0.254072
 H         1.915644        -1.174192        -1.759531
 H         4.152151         0.026884        -1.311871
 H         4.203593        -0.914743         1.405603
 H         4.413159         0.838699         1.389492
 H         2.715037         0.934589         3.096826
 H         0.996130         2.449036        -0.845922
