19
Iteration:  1335charge 0 multiplicity 1
 C        -0.019330        -0.495917         0.117722
 C         1.433758        -0.199630         0.199374
 C         2.304983        -0.886316        -0.815026
 C         3.381599         0.156023        -0.455422
 C         3.788895        -0.153541         1.058653
 C         2.345807         0.400372         1.402089
 O         1.852844         0.960928         2.629162
 C         2.201603         1.037645         0.079405
 O         1.811048         2.263192        -0.514635
 H        -0.625300         0.403089         0.160411
 H        -0.314242        -0.955844        -0.828520
 H        -0.430263        -1.268765         0.809852
 H         2.579195        -2.056160        -0.829242
 H         2.036252        -0.819936        -1.890293
 H         4.107674         0.668211        -1.139477
 H         4.172732        -1.159043         1.260301
 H         4.571681         0.493717         1.368984
 H         0.879806         0.980528         2.620073
 H         1.358043         2.800435         0.168459
