19
Iteration:  1076charge 0 multiplicity 1
 C        -0.059291        -0.228713         0.262081
 C         1.412631        -0.164405         0.108097
 C         2.391575        -0.919978        -0.787391
 C         3.454906         0.132371        -0.388573
 C         3.793099        -0.083185         1.155227
 C         2.320048         0.386611         1.347940
 O         1.667108         0.543207         2.603771
 C         2.174549         1.111916         0.013811
 O         1.894481         2.291357        -0.646932
 H        -0.455493         0.763529         0.428097
 H        -0.541637        -0.510687        -0.655745
 H        -0.373656        -0.891736         1.073870
 H         2.434071        -2.074925        -0.712625
 H         2.161568        -0.573217        -1.839167
 H         4.408877         0.382346        -1.022091
 H         4.150059        -1.000501         1.514408
 H         4.495025         0.750865         1.420412
 H         2.088209         1.292015         3.002276
 H         0.994254         2.651913        -0.488147
