19
Iteration:  1645charge 0 multiplicity 1
 C        -0.094768        -0.504427         0.529011
 C         1.350214        -0.243619         0.111958
 C         2.313244        -1.012994        -0.726561
 C         3.343502         0.185246        -0.455246
 C         3.787816         0.025369         0.943440
 C         2.397795         0.494113         1.269325
 O         1.795566         0.818287         2.485894
 C         2.140469         1.080339        -0.019645
 O         1.917778         2.360840        -0.456846
 H        -0.592827         0.496212         0.472138
 H        -0.495347        -1.127853        -0.238420
 H        -0.264708        -0.838418         1.552724
 H         2.829820        -1.921713        -0.376227
 H         2.095420        -1.192594        -1.813535
 H         4.224323         0.351924        -1.230947
 H         4.279047        -1.049865         1.202641
 H         4.460668         0.822008         1.173476
 H         1.638223        -0.018228         2.958358
 H         1.747812         2.308133        -1.423145
