19
Iteration:  4632
 C        -0.194174         0.140703         0.030517
 C         1.350353        -0.067257         0.079312
 C         2.030234        -0.099698        -1.235977
 C         3.254807         0.613883        -0.643248
 C         3.774673        -0.367056         0.518235
 C         2.411899        -0.075147         1.144418
 O         2.232965        -0.512055         2.468248
 C         2.258261         1.218020         0.434526
 O         1.825729         2.464616         0.708951
 H        -0.603840         0.919075         0.711613
 H        -0.525741         0.423461        -1.013829
 H        -0.772083        -0.785317         0.294512
 H         2.178709        -1.227649        -1.557630
 H         1.464253         0.452351        -2.011267
 H         4.071153         1.108645        -1.256091
 H         4.057750        -1.398793         0.104314
 H         4.536467         0.079178         1.128213
 H         1.706220        -1.300928         2.481427
 H         2.524730         3.068665         0.953650
