19
Iteration:  2125charge 0 multiplicity 1
 C         0.031865        -0.422206         0.652142
 C         1.417359        -0.231135         0.199265
 C         2.308991        -1.035774        -0.755007
 C         3.335984         0.159007        -0.526484
 C         3.779860        -0.124802         0.949764
 C         2.374356         0.430109         1.234975
 O         1.686548         0.830625         2.408420
 C         2.262092         1.090489        -0.070942
 O         1.836196         2.368107        -0.434492
 H        -0.571950         0.486858         0.712107
 H        -0.579137        -1.116261         0.060988
 H         0.011076        -0.827961         1.727134
 H         2.566604        -2.092900        -0.510790
 H         1.891775        -1.053028        -1.767212
 H         4.203773         0.463377        -1.113592
 H         4.112366        -1.024894         1.259717
 H         4.505977         0.755461         1.016102
 H         2.217177         1.596932         2.669655
 H         1.346245         2.217614        -1.276649
