19
Iteration:  4609
 C        -0.170342        -0.036431         0.185699
 C         1.371566         0.118310        -0.012136
 C         2.074374        -0.093543        -1.345016
 C         3.278781         0.512964        -0.635107
 C         3.725621        -0.378042         0.501213
 C         2.437541        -0.099906         1.130446
 O         2.150893        -0.472760         2.493051
 C         2.233207         1.228159         0.378810
 O         1.865099         2.543327         0.737525
 H        -0.631991         0.053675         1.196818
 H        -0.810096         0.646732        -0.461263
 H        -0.415206        -1.075676        -0.178222
 H         2.188117        -1.211141        -1.700721
 H         1.714399         0.599283        -2.145540
 H         4.033701         1.144276        -1.223694
 H         3.968580        -1.454230         0.179779
 H         4.526763         0.075635         1.099206
 H         1.268321        -0.908455         2.567890
 H         2.701957         2.929288         1.129457
