19
Iteration:  1537charge 0 multiplicity 1
 C        -0.120429        -0.300845         0.444036
 C         1.443111        -0.391740         0.214060
 C         2.358726        -1.078849        -0.749338
 C         3.500178         0.120620        -0.409678
 C         3.854095         0.136582         1.040987
 C         2.370465         0.362979         1.220845
 O         1.797534         0.897302         2.334775
 C         2.195021         0.983402        -0.143082
 O         1.767527         2.296192        -0.272708
 H        -0.291769         0.527615         1.169486
 H        -0.639816         0.184217        -0.363937
 H        -0.761078        -1.143584         0.619681
 H         2.617206        -2.119028        -0.455224
 H         2.097316        -1.062897        -1.849289
 H         4.247301         0.400694        -1.292052
 H         4.267080        -0.755644         1.366731
 H         4.545347         0.910138         1.240327
 H         0.926358         0.568649         2.527823
 H         0.943938         2.377856        -0.800078
