19
Iteration:   672charge 0 multiplicity 1
 C        -0.109503        -0.238351         0.441622
 C         1.424304        -0.320792         0.068401
 C         2.465514        -0.991310        -0.798063
 C         3.443119         0.111620        -0.424625
 C         3.743731         0.046388         1.082873
 C         2.263363         0.321245         1.301166
 O         1.664398         0.711939         2.468848
 C         2.174829         1.045804        -0.052445
 O         1.970048         2.381225        -0.541128
 H        -0.131438         0.155658         1.457263
 H        -0.563596         0.488038        -0.259781
 H        -0.749709        -1.152532         0.561066
 H         2.777023        -2.044815        -0.417314
 H         2.066451        -1.120820        -1.770563
 H         4.255843         0.336813        -1.082518
 H         4.288311        -0.798782         1.450654
 H         4.257245         0.999294         1.373593
 H         1.088394        -0.077982         2.738160
 H         1.895283         2.998197         0.232372
