19
Iteration:  1586charge 0 multiplicity 1
 C        -0.020922        -0.576142         0.421363
 C         1.371428        -0.160037         0.161613
 C         2.287356        -1.000051        -0.706556
 C         3.390561         0.148477        -0.497091
 C         3.787788        -0.122640         1.035297
 C         2.396713         0.507889         1.300263
 O         1.782268         0.898598         2.512851
 C         2.145987         1.122187        -0.028515
 O         1.796839         2.371356        -0.593783
 H        -0.780552         0.187520         0.591793
 H        -0.482277        -1.145087        -0.480780
 H        -0.046963        -1.412876         1.197942
 H         2.651730        -2.028475        -0.557590
 H         1.925693        -0.916212        -1.716735
 H         4.115656         0.393567        -1.182415
 H         3.958659        -1.201168         1.371668
 H         4.539247         0.520491         1.628596
 H         2.232391         0.223354         3.092768
 H         2.502084         3.010147        -0.328660
