19
Iteration:  2295charge 0 multiplicity 1
 C        -0.063437        -0.603080         0.388923
 C         1.376181        -0.292729         0.240050
 C         2.254381        -1.022391        -0.695784
 C         3.355501         0.012689        -0.549923
 C         3.740160         0.042406         0.962637
 C         2.333608         0.426792         1.279048
 O         1.930764         0.996037         2.509573
 C         2.141553         1.051984        -0.126349
 O         1.954910         2.406656        -0.325646
 H        -0.484947        -0.565120         1.421539
 H        -0.816958         0.057003        -0.150256
 H        -0.313948        -1.570287         0.026062
 H         2.446057        -2.036257        -0.249752
 H         1.750555        -1.206355        -1.687023
 H         4.258105         0.279745        -1.128698
 H         4.429677        -0.886204         1.267303
 H         4.246469         0.959824         1.165356
 H         1.294149         1.687917         2.225163
 H         1.573291         2.426623        -1.239814
