19
Iteration:  3904
 C        -0.043446        -0.147535         0.233279
 C         1.388966        -0.102433        -0.005935
 C         2.185803        -0.548728        -1.129399
 C         3.410445         0.325542        -0.708246
 C         3.775888        -0.338023         0.606706
 C         2.341228         0.023641         1.201548
 O         2.072672         0.246376         2.532508
 C         2.213179         1.230108         0.167051
 O         1.663111         2.475215         0.492230
 H        -0.228266        -0.598839         1.252991
 H        -0.524553         0.870375         0.170333
 H        -0.575321        -0.714383        -0.508460
 H         2.360743        -1.652184        -1.124661
 H         1.712182        -0.185006        -2.081505
 H         4.153243         0.549152        -1.422643
 H         4.075795        -1.377241         0.458002
 H         4.553776         0.278713         1.266750
 H         1.255489        -0.085263         2.906498
 H         2.380496         3.019490         0.894106
