19
Iteration:  4204charge 0 multiplicity 1
 C        -0.136082        -0.210784         0.362323
 C         1.384832        -0.030707         0.000664
 C         2.131305        -0.352808        -1.262539
 C         3.300603         0.497383        -0.618552
 C         3.688978        -0.299340         0.638914
 C         2.352118        -0.001738         1.184287
 O         2.037868        -0.217802         2.503161
 C         2.247587         1.281763         0.300797
 O         1.892249         2.636528         0.333602
 H        -0.591922         0.681958         0.027658
 H        -0.654651        -0.954462        -0.237121
 H        -0.318610        -0.418339         1.440730
 H         2.556062        -1.370188        -1.392648
 H         1.737043         0.037213        -2.219250
 H         4.142633         0.898835        -1.175788
 H         3.798706        -1.365784         0.384312
 H         4.379522         0.079253         1.322706
 H         2.219363        -1.101461         2.852345
 H         2.417944         3.167955         0.921815
