19
Iteration:  1910
 C        -0.122936        -0.487371         0.306542
 C         1.372578        -0.231475         0.324010
 C         2.239851        -1.021880        -0.671123
 C         3.363227         0.078068        -0.560538
 C         3.767282         0.039379         0.892630
 C         2.355508         0.451238         1.331336
 O         1.996670         0.848934         2.602486
 C         2.242020         1.046647        -0.095412
 O         1.817900         2.380459        -0.455726
 H        -0.866138         0.301317         0.095354
 H        -0.141569        -1.109614        -0.691293
 H        -0.572227        -1.196431         1.059270
 H         2.531864        -2.051096        -0.331271
 H         1.817581        -1.115607        -1.699224
 H         3.911958         0.137091        -1.438856
 H         4.214902        -0.922131         1.320433
 H         4.335391         0.819318         1.187422
 H         2.475154         1.661636         2.748872
 H         0.855884         2.287763        -0.354571
