19
Iteration:  3332
 C        -0.031972        -0.143326         0.492831
 C         1.433540        -0.165525         0.090201
 C         2.319623        -0.832345        -1.068025
 C         3.393615         0.205322        -0.716610
 C         3.802812        -0.190492         0.800653
 C         2.442457         0.227796         1.282478
 O         1.801153         0.542505         2.479585
 C         2.261584         1.092132         0.087532
 O         1.598472         2.388363         0.043182
 H        -0.596444        -0.795786        -0.106949
 H        -0.247783        -0.471242         1.559281
 H        -0.427624         0.831157         0.196918
 H         2.654829        -1.871486        -0.848438
 H         1.741872        -0.796844        -2.019870
 H         4.140355         0.595932        -1.379332
 H         4.001989        -1.236107         0.794419
 H         4.584279         0.650538         1.170976
 H         2.120121        -0.151853         3.111997
 H         2.362141         2.995828         0.102409
