19
Iteration:  1570charge 0 multiplicity 1
 C         0.005302        -0.475616         0.435838
 C         1.450676        -0.182215         0.077305
 C         2.376227        -1.027833        -0.758282
 C         3.396226         0.095613        -0.476069
 C         3.743268        -0.079747         0.983945
 C         2.318861         0.429823         1.325749
 O         1.752340         0.956385         2.494125
 C         2.221770         1.100383        -0.073665
 O         1.715135         2.330791        -0.413478
 H        -0.375957         0.396748         0.992274
 H        -0.527922        -0.720844        -0.451359
 H        -0.042055        -1.231099         1.201889
 H         2.576985        -1.955531        -0.191034
 H         2.081026        -1.312099        -1.804616
 H         4.202662         0.378551        -1.295152
 H         3.974485        -1.102705         1.192217
 H         4.599887         0.526661         1.164997
 H         1.673123         0.326312         3.233097
 H         2.397268         2.758212        -0.946313
