19
Iteration:  1810
 C        -0.010762        -0.405907         0.667529
 C         1.410905        -0.251680         0.157964
 C         2.333585        -0.999761        -0.784346
 C         3.348560         0.073144        -0.573700
 C         3.822241        -0.056319         0.909575
 C         2.351943         0.528652         1.267808
 O         1.699488         0.768944         2.515853
 C         2.161797         1.063144        -0.094222
 O         1.892869         2.353704        -0.437830
 H        -0.169691         0.339370         1.498746
 H        -0.864082        -0.155102        -0.008132
 H        -0.181955        -1.434883         1.095744
 H         2.724006        -1.914603        -0.307792
 H         2.203070        -1.125317        -1.880105
 H         4.180073         0.280068        -1.332033
 H         4.126337        -1.126483         1.142108
 H         4.552581         0.534062         1.292808
 H         1.543473         1.734617         2.560812
 H         1.584209         2.461335        -1.350946
