19
Iteration:  1796charge 0 multiplicity 1
 C        -0.004633        -0.452126         0.604127
 C         1.387580        -0.180498         0.180911
 C         2.330545        -1.085384        -0.693763
 C         3.371991         0.156830        -0.526236
 C         3.696848        -0.001492         0.958031
 C         2.319628         0.388664         1.262553
 O         1.796461         0.750985         2.522011
 C         2.163279         1.092603        -0.122920
 O         1.938276         2.430418        -0.530835
 H        -0.219641         0.074956         1.603067
 H        -0.702773        -0.197742        -0.212885
 H        -0.072483        -1.594953         0.784188
 H         2.534283        -2.179956        -0.527607
 H         1.742459        -1.006102        -1.643901
 H         4.130922         0.316944        -1.369083
 H         3.918739        -1.020507         1.286942
 H         4.539048         0.708357         1.270646
 H         2.156767         1.616640         2.767821
 H         1.234214         2.332172        -1.205151
