19
Iteration:  3687charge 0 multiplicity 1
 C        -0.178854        -0.262952         0.157641
 C         1.341277        -0.105070         0.143950
 C         2.220423        -0.693243        -1.055363
 C         3.305247         0.332359        -0.688263
 C         3.820124        -0.170255         0.617950
 C         2.368623         0.114188         1.320046
 O         1.996469         0.295498         2.664107
 C         2.159881         1.121547         0.186346
 O         1.925015         2.533562         0.185678
 H        -0.404870        -0.840347         1.047660
 H        -0.661143         0.668120         0.356982
 H        -0.556756        -0.501805        -0.810254
 H         2.437623        -1.795206        -1.110624
 H         1.905870        -0.275134        -2.036055
 H         4.092077         0.851918        -1.266676
 H         4.419922        -1.114042         0.547355
 H         4.425012         0.541590         1.151777
 H         2.304968        -0.502146         3.152094
 H         1.057550         2.629082        -0.224760
