19
Iteration:   762
 C        -0.089809        -0.612493         0.185178
 C         1.327167        -0.279560         0.113623
 C         2.379773        -0.891911        -0.887932
 C         3.433866         0.086409        -0.398544
 C         3.593936        -0.187336         1.110722
 C         2.202728         0.283847         1.324772
 O         1.887025         1.201236         2.419449
 C         2.257643         1.027083        -0.010989
 O         1.874973         2.378034        -0.290223
 H        -0.758370         0.132500         0.675958
 H        -0.411531        -0.954567        -0.817222
 H        -0.147489        -1.547418         0.813194
 H         2.753605        -1.999848        -1.041222
 H         2.002895        -0.617372        -1.940995
 H         4.398548         0.395457        -0.956392
 H         3.883935        -1.226410         1.225035
 H         4.221065         0.512084         1.653951
 H         2.604573         1.067164         3.108861
 H         2.187341         2.842091         0.533067
