19
Iteration:   259charge 0 multiplicity 1
 C        -0.027030        -0.527647         0.502660
 C         1.361838        -0.164721         0.003799
 C         2.325325        -0.998847        -0.819950
 C         3.397773         0.047862        -0.578018
 C         3.654743        -0.245481         1.066048
 C         2.251964         0.350337         1.201802
 O         1.696389         1.015204         2.325189
 C         2.310557         1.102841        -0.013654
 O         2.085602         2.494569        -0.109502
 H        -0.526686         0.356478         0.941684
 H        -0.706616        -0.772960        -0.347639
 H        -0.087846        -1.342169         1.290675
 H         2.563118        -2.002667        -0.424626
 H         1.976072        -0.928314        -1.872648
 H         4.225491         0.155300        -1.234772
 H         3.797507        -1.245178         1.500514
 H         4.271000         0.527647         1.479317
 H         0.867168         0.566539         2.470079
 H         2.013874         2.744100        -1.037264
