19
Iteration:  1607charge 0 multiplicity 1
 C        -0.059953        -0.670248         0.459690
 C         1.353211        -0.217100         0.249916
 C         2.277023        -0.885750        -0.794325
 C         3.337901         0.145190        -0.465502
 C         3.672678         0.025839         1.022845
 C         2.254519         0.464842         1.301709
 O         1.885249         0.838522         2.590365
 C         2.226749         1.133897        -0.074675
 O         1.997902         2.347147        -0.685954
 H        -0.736187         0.172391         0.343308
 H        -0.457828        -1.309530        -0.406928
 H        -0.301716        -1.354156         1.327793
 H         2.420904        -1.970388        -0.598101
 H         1.831908        -0.692896        -1.756381
 H         4.249334         0.235959        -0.908008
 H         4.025339        -0.911225         1.350525
 H         4.494739         0.805388         1.236022
 H         2.281131         0.171018         3.156662
 H         1.518335         2.905215        -0.053947
