19
Iteration:   191charge 0 multiplicity 1
 C        -0.055127        -0.106283         0.033492
 C         1.437278        -0.129848         0.298506
 C         2.211389        -0.994262        -0.620506
 C         3.390559         0.107740        -0.520558
 C         3.823477        -0.051677         1.075177
 C         2.378891         0.356595         1.376664
 O         1.858510         0.638416         2.687903
 C         2.297138         1.072545        -0.002707
 O         1.839527         2.260989        -0.574058
 H        -0.556981         0.542552         0.770623
 H        -0.110625         0.463062        -0.903347
 H        -0.545409        -1.110641        -0.024240
 H         2.322273        -2.070146        -0.412583
 H         1.697791        -0.687767        -1.644584
 H         3.871621         0.541517        -1.490498
 H         4.088902        -1.078128         1.156087
 H         4.496229         0.727321         1.519891
 H         1.115006        -0.046059         2.838970
 H         0.863175         2.238008        -0.733737
