19
Iteration:   855
 C        -0.097686        -0.057270         0.432261
 C         1.385400        -0.128772         0.169038
 C         2.357851        -0.922267        -0.769505
 C         3.492965         0.168393        -0.410686
 C         3.735314         0.112031         1.162515
 C         2.271849         0.522972         1.355408
 O         1.748315         0.199628         2.621228
 C         2.199128         1.043667        -0.093905
 O         1.871215         2.219356        -0.792539
 H        -0.382200         0.943084         0.651426
 H        -0.562527        -0.379612        -0.485776
 H        -0.487628        -0.625552         1.271832
 H         2.791139        -1.910911        -0.573498
 H         2.184876        -0.947431        -1.861049
 H         4.133657         0.532640        -1.223114
 H         3.974793        -0.853913         1.587002
 H         4.338026         0.896957         1.618116
 H         1.494674         0.967279         3.120832
 H         2.657129         2.756359        -0.946307
