19
Iteration:  4130
 C        -0.133906        -0.187986         0.242572
 C         1.383911         0.002822        -0.047616
 C         2.145081        -0.462075        -1.249142
 C         3.318375         0.506468        -0.714944
 C         3.780195        -0.261224         0.634746
 C         2.399327         0.069392         1.207554
 O         2.057949         0.010274         2.617395
 C         2.216977         1.183078         0.266559
 O         1.832348         2.430887         0.452403
 H        -0.331717        -0.475728         1.300107
 H        -0.647537         0.793398         0.216122
 H        -0.627855        -0.909668        -0.423191
 H         2.241642        -1.532302        -1.369994
 H         1.705917        -0.014921        -2.136129
 H         4.011216         0.902234        -1.399441
 H         3.931663        -1.388987         0.424261
 H         4.591543         0.188729         1.152049
 H         1.380029        -0.715714         2.486679
 H         2.387651         2.848533         1.146891
