19
Iteration:  1476
 C        -0.146113        -0.542982         0.215185
 C         1.387187        -0.190799         0.196823
 C         2.360474        -0.935665        -0.711977
 C         3.408683         0.136254        -0.379442
 C         3.721066        -0.069604         1.120863
 C         2.308477         0.496549         1.319576
 O         1.965279         0.848972         2.555857
 C         2.226621         1.137872        -0.070697
 O         1.669644         2.330778        -0.557383
 H        -0.613933        -0.154241         1.114597
 H        -0.602979        -0.095781        -0.710977
 H        -0.299446        -1.658468         0.256870
 H         2.815809        -1.917405        -0.440302
 H         2.090539        -0.961140        -1.774084
 H         4.244782         0.281832        -1.003359
 H         3.867473        -1.198068         1.376828
 H         4.629537         0.604775         1.430635
 H         2.270689         0.132623         3.136164
 H         2.429669         2.695061        -1.077413
