19
Iteration:  4069charge 0 multiplicity 1
 C        -0.141216        -0.199370         0.124258
 C         1.339918        -0.086272         0.028422
 C         2.152734        -0.504168        -1.236284
 C         3.194714         0.474167        -0.649459
 C         3.752185        -0.285676         0.594519
 C         2.486996         0.010370         1.222704
 O         2.125511         0.105877         2.646414
 C         2.182828         1.199306         0.205698
 O         1.879466         2.485391         0.470162
 H        -0.424006        -1.107062        -0.462833
 H        -0.514477        -0.338390         1.167577
 H        -0.714401         0.623633        -0.318489
 H         2.328611        -1.616877        -1.353371
 H         1.634326        -0.043535        -2.118644
 H         4.082515         0.868352        -1.183225
 H         4.090305        -1.316022         0.466162
 H         4.612136         0.419137         1.014310
 H         1.147437        -0.005303         2.716649
 H         2.269472         2.714068         1.320943
