19
Iteration:   328
 C        -0.155105        -0.450164         0.298856
 C         1.307288        -0.188164        -0.035581
 C         2.372600        -0.953402        -0.819407
 C         3.384216         0.084598        -0.423325
 C         3.646104        -0.118142         1.104404
 C         2.264882         0.483856         1.301032
 O         1.788515         0.812410         2.588640
 C         2.110104         1.086878        -0.024809
 O         2.214468         2.386561        -0.448707
 H        -0.820237         0.468074         0.319797
 H        -0.671316        -1.105041        -0.469943
 H        -0.312488        -0.815996         1.350918
 H         2.728766        -1.924564        -0.441210
 H         2.357781        -0.869705        -1.856989
 H         4.091656         0.187927        -1.245940
 H         3.927983        -1.176150         1.436847
 H         4.341858         0.670554         1.418310
 H         1.949648         0.122003         3.210044
 H         1.403578         2.893745        -0.212629
