19
Iteration:  1425
 C        -0.075375        -0.455033         0.513246
 C         1.445607        -0.252031         0.230084
 C         2.380577        -0.947507        -0.775784
 C         3.474564         0.208523        -0.492848
 C         3.780026        -0.023293         1.057355
 C         2.361258         0.466410         1.303168
 O         1.603007         0.696666         2.408538
 C         2.175294         1.056081        -0.041401
 O         1.926734         2.358935        -0.578384
 H        -0.432090         0.472765         0.970478
 H        -0.627618        -0.516556        -0.400598
 H        -0.272035        -1.360681         1.058038
 H         2.563650        -2.040527        -0.788022
 H         1.952411        -0.818936        -1.780115
 H         4.137653         0.528688        -1.269584
 H         4.096122        -0.995964         1.298830
 H         4.535751         0.570453         1.487998
 H         2.123957         0.941448         3.220236
 H         1.140349         2.662655        -0.049653
