19
Iteration:  3335
 C        -0.025706        -0.154696         0.464169
 C         1.450952        -0.156610         0.062779
 C         2.310385        -0.815666        -1.045873
 C         3.383027         0.190720        -0.730147
 C         3.798445        -0.167837         0.803620
 C         2.421741         0.235868         1.288395
 O         1.819285         0.561120         2.480731
 C         2.247598         1.064717         0.092575
 O         1.600485         2.379057         0.069058
 H        -0.677407        -0.882480        -0.086512
 H        -0.201278        -0.481795         1.488270
 H        -0.303231         0.823777         0.208501
 H         2.653684        -1.807483        -0.823425
 H         1.700873        -0.685931        -1.944372
 H         4.162546         0.522168        -1.413505
 H         4.005114        -1.333790         0.839373
 H         4.623252         0.525199         1.242565
 H         2.154849        -0.138585         3.037233
 H         2.315209         3.026323         0.004028
