19
Iteration:    70charge 0 multiplicity 1
 C        -0.125038        -0.776126         0.424482
 C         1.240821        -0.192282        -0.033911
 C         2.315629        -0.944752        -0.807781
 C         3.401468         0.070017        -0.482844
 C         3.626728        -0.131925         1.086445
 C         2.181201         0.448249         1.175190
 O         1.797449         0.945255         2.431836
 C         2.239442         1.145804        -0.123095
 O         2.297567         2.555101        -0.154937
 H        -0.642236         0.173072         0.759451
 H        -0.814111        -1.180521        -0.370520
 H        -0.017767        -1.468732         1.315368
 H         2.446781        -1.843074        -0.288412
 H         2.038526        -1.151599        -1.893647
 H         4.347060         0.091382        -1.055938
 H         3.916514        -1.221320         1.268823
 H         4.286778         0.657216         1.553632
 H         0.974034         0.666405         2.784042
 H         1.594643         2.834313        -0.799162
