19
Iteration:  1958charge 0 multiplicity 1
 C        -0.033789        -0.321312         0.677954
 C         1.435813        -0.139047         0.255095
 C         2.394125        -0.961264        -0.731223
 C         3.397447         0.200390        -0.573479
 C         3.801940        -0.076803         0.966024
 C         2.332016         0.383252         1.298160
 O         1.714586         0.652383         2.512890
 C         2.259488         1.110683        -0.125014
 O         1.777982         2.255948        -0.664830
 H         0.033268         0.492192         1.470376
 H        -0.985395        -0.095887         0.164083
 H        -0.147687        -1.180101         1.356510
 H         2.744266        -1.991576        -0.500024
 H         1.857405        -1.127954        -1.670144
 H         4.300736         0.501100        -1.266696
 H         4.052760        -1.041628         1.254066
 H         4.540139         0.788948         1.284063
 H         2.009602         1.583638         2.706656
 H         0.865831         2.151290        -1.022092
