19
Iteration:  1590charge 0 multiplicity 1
 C        -0.061375        -0.615216         0.410953
 C         1.381695        -0.163267         0.204237
 C         2.280858        -0.950513        -0.713259
 C         3.389510         0.127076        -0.465047
 C         3.759001        -0.092783         1.057794
 C         2.404722         0.501079         1.310335
 O         1.812926         0.867129         2.506664
 C         2.139800         1.129679        -0.061975
 O         1.830211         2.373031        -0.631042
 H        -0.826573         0.147103         0.640846
 H        -0.338197        -1.166236        -0.470580
 H        -0.087487        -1.313739         1.238757
 H         2.643822        -1.982124        -0.585222
 H         1.935635        -0.871414        -1.776877
 H         4.042459         0.482162        -1.372189
 H         3.873892        -1.194452         1.447691
 H         4.524896         0.500176         1.495193
 H         2.210350         0.292753         3.162312
 H         2.391477         3.014872        -0.148948
