19
Iteration:  2648
 C        -0.128350        -0.162417         0.406545
 C         1.491083        -0.264632         0.213381
 C         2.337458        -0.932524        -0.831124
 C         3.453225         0.196379        -0.556215
 C         3.860526        -0.103926         0.984120
 C         2.379087         0.344035         1.254457
 O         1.804264         0.608842         2.459520
 C         2.254152         1.064164        -0.014867
 O         1.625993         2.340116        -0.245868
 H        -0.519416         0.693807        -0.175768
 H        -0.497233        -1.097825         0.093382
 H        -0.383352        -0.106259         1.464022
 H         2.772982        -1.896959        -0.654974
 H         1.763122        -1.027578        -1.780733
 H         4.273543         0.333600        -1.311510
 H         4.180647        -1.254803         1.088656
 H         4.751857         0.514598         1.501272
 H         1.786615         1.567282         2.650587
 H         1.414608         2.362494        -1.192794
