19
Iteration:   337charge 0 multiplicity 1
 C        -0.122188        -0.339579         0.251919
 C         1.349599        -0.183030        -0.016907
 C         2.364944        -0.938900        -0.816656
 C         3.357831         0.069184        -0.400181
 C         3.639319        -0.054602         1.138259
 C         2.318987         0.475202         1.353162
 O         1.816576         0.764643         2.568192
 C         2.180207         1.067686         0.012100
 O         2.076407         2.354677        -0.530163
 H        -0.638502         0.645124         0.256092
 H        -0.640727        -1.073679        -0.430311
 H        -0.231114        -0.872531         1.237000
 H         2.602984        -2.014279        -0.484485
 H         2.189980        -1.024522        -1.937564
 H         4.169753         0.230285        -1.034580
 H         3.613188        -1.137592         1.419420
 H         4.459211         0.367566         1.643498
 H         1.908313        -0.060787         3.024459
 H         1.420194         2.862192        -0.002932
