19
Iteration:  1510charge 0 multiplicity 1
 C        -0.027579        -0.360980         0.234296
 C         1.474933        -0.232313         0.195111
 C         2.348882        -1.097476        -0.686934
 C         3.368107         0.123707        -0.525827
 C         3.807934         0.069026         0.965391
 C         2.314826         0.400610         1.333636
 O         1.821696         0.915386         2.552948
 C         2.255636         1.053563        -0.035188
 O         1.758248         2.235640        -0.441621
 H        -0.459823         0.065293         1.126949
 H        -0.552451         0.184241        -0.588025
 H        -0.401375        -1.410453         0.170547
 H         2.683527        -2.039840        -0.188901
 H         1.875248        -1.275897        -1.648111
 H         4.050956         0.291537        -1.260124
 H         4.457466        -0.892330         1.209305
 H         4.492920         0.963352         1.068261
 H         1.010970         0.519874         2.858758
 H         1.254442         2.678896         0.269500
