19
Iteration:   338charge 0 multiplicity 1
 C        -0.117004        -0.330732         0.249171
 C         1.349406        -0.180642        -0.012320
 C         2.360373        -0.947593        -0.819716
 C         3.360161         0.074309        -0.395087
 C         3.641047        -0.054384         1.139152
 C         2.322398         0.473980         1.356467
 O         1.816944         0.759602         2.567340
 C         2.191163         1.068941         0.011477
 O         2.060871         2.352775        -0.537723
 H        -0.623546         0.670678         0.247855
 H        -0.629965        -1.066454        -0.445577
 H        -0.230202        -0.871785         1.233010
 H         2.575042        -2.017313        -0.500704
 H         2.161180        -1.032341        -1.894469
 H         4.204846         0.275038        -1.007263
 H         3.605179        -1.147824         1.430878
 H         4.478112         0.344726         1.652634
 H         1.895488        -0.064383         3.009857
 H         1.433320         2.847305         0.009134
