19
Iteration:  3243
 C        -0.121241        -0.473423         0.369699
 C         1.317676        -0.053990         0.192496
 C         2.148676        -0.768333        -0.909970
 C         3.253172         0.276797        -0.597305
 C         3.698486        -0.195641         0.809904
 C         2.402531         0.327552         1.276706
 O         2.117440         0.411042         2.598589
 C         2.226415         1.198996         0.081323
 O         1.920148         2.512930        -0.153894
 H        -0.559141        -0.653268        -0.575217
 H         0.013175        -1.523633         0.696375
 H        -0.772782         0.174168         0.956466
 H         2.559368        -1.777556        -0.879750
 H         1.657890        -0.419728        -1.857904
 H         3.946997         0.656113        -1.382086
 H         4.046100        -1.228760         0.815671
 H         4.676594         0.346453         1.269085
 H         1.178644         0.273741         2.866571
 H         1.753207         2.601224        -1.112757
