19
Iteration:  3170charge 0 multiplicity 1
 C        -0.121584        -0.295434         0.428650
 C         1.395168        -0.195867         0.205045
 C         2.286845        -0.931771        -1.032485
 C         3.321799         0.237520        -0.720680
 C         3.900312        -0.176701         0.756449
 C         2.438905         0.199488         1.254192
 O         1.819092         0.641834         2.460524
 C         2.198375         1.119411         0.050530
 O         1.841965         2.457385         0.101108
 H        -0.842174         0.591833         0.179840
 H        -0.326769        -1.185446        -0.303117
 H        -0.312778        -0.513107         1.478766
 H         2.391016        -1.997100        -0.722470
 H         1.760385        -0.705265        -1.973782
 H         3.880990         0.584540        -1.585247
 H         4.120445        -1.231716         1.044505
 H         4.572480         0.588133         1.150344
 H         2.480568         1.269549         2.852062
 H         0.864881         2.499520         0.169592
