19
Iteration:  1209
 C        -0.097891        -0.620757         0.271141
 C         1.344190        -0.130339         0.047289
 C         2.457213        -0.929267        -0.767658
 C         3.408834         0.150629        -0.369922
 C         3.681535        -0.176241         1.074615
 C         2.314680         0.525185         1.345471
 O         1.789300         0.793209         2.576078
 C         2.176695         1.108352        -0.031705
 O         1.975889         2.380877        -0.551446
 H        -0.528073        -0.423638         1.267252
 H        -0.759597        -0.158860        -0.450989
 H        -0.137556        -1.676892         0.117615
 H         2.824745        -1.894943        -0.442612
 H         2.099338        -0.886731        -1.756544
 H         4.174243         0.460060        -1.033084
 H         3.724112        -1.192134         1.357060
 H         4.389119         0.349840         1.727811
 H         1.320572         1.603335         2.447297
 H         1.432712         2.879086         0.102992
