19
Iteration:  3609charge 0 multiplicity 1
 C        -0.019950        -0.385008         0.549042
 C         1.424285        -0.102336         0.024550
 C         2.142371        -0.696532        -1.116018
 C         3.339762         0.406608        -0.553461
 C         3.857163        -0.267613         0.801408
 C         2.405125         0.214711         1.221280
 O         1.832624         0.351675         2.473354
 C         2.203244         1.156691         0.038900
 O         1.898502         2.526386         0.156002
 H        -0.717139        -0.319772        -0.376040
 H        -0.126143        -1.400586         0.991157
 H        -0.371554         0.397019         1.194216
 H         2.404708        -1.761249        -1.334473
 H         1.594665        -0.233994        -1.978965
 H         4.067170         0.879226        -1.274477
 H         4.051718        -1.311238         0.657127
 H         4.735654         0.225483         1.259405
 H         1.122864        -0.294520         2.472222
 H         1.523035         2.823625        -0.680650
