19
Iteration:  2683
 C         0.033663        -0.445217         0.487978
 C         1.362528        -0.148801         0.030978
 C         2.274016        -0.905090        -0.993280
 C         3.349229         0.171697        -0.516366
 C         3.733973        -0.066454         1.110148
 C         2.295984         0.388721         1.319602
 O         1.834887         0.540881         2.588155
 C         2.186850         1.168273        -0.005258
 O         1.931889         2.432836        -0.411766
 H        -0.817154        -0.534060        -0.191000
 H         0.030787        -1.408022         1.033375
 H        -0.221625         0.359780         1.275216
 H         2.539127        -1.943583        -0.730945
 H         1.771196        -0.833302        -1.977832
 H         4.138831         0.543077        -1.203978
 H         4.003415        -1.261412         1.258792
 H         4.555747         0.595562         1.373875
 H         1.902742         1.499712         2.743569
 H         1.195397         2.414853        -1.039376
