19
Iteration:  1852charge 0 multiplicity 1
 C        -0.022314        -0.438584         0.504605
 C         1.381367        -0.282616         0.193007
 C         2.322843        -0.982773        -0.761830
 C         3.444665         0.027264        -0.547075
 C         3.753937        -0.071241         0.937475
 C         2.328810         0.378579         1.224289
 O         1.893544         0.954015         2.481048
 C         2.189259         1.003967        -0.167868
 O         1.757503         2.357919        -0.214534
 H        -0.470434         0.611104         0.697900
 H        -0.551899        -0.840806        -0.393975
 H        -0.388598        -1.065652         1.399779
 H         2.567497        -2.050201        -0.534445
 H         1.775373        -0.923518        -1.772050
 H         4.215421         0.146150        -1.409364
 H         4.227948        -0.909151         1.502423
 H         4.383861         0.885125         1.049469
 H         1.682292         1.922042         2.336289
 H         1.559737         2.586935        -1.154852
