19
Iteration:   861charge 0 multiplicity 1
 C        -0.089470        -0.124922         0.389864
 C         1.396105        -0.135889         0.226397
 C         2.373553        -0.905055        -0.785487
 C         3.475627         0.188535        -0.376172
 C         3.714425         0.065717         1.111311
 C         2.319005         0.538805         1.380884
 O         1.743600         0.240569         2.612765
 C         2.178315         1.127587        -0.052232
 O         1.870432         2.194366        -0.787080
 H        -0.426240         0.933283         0.678167
 H        -0.550814        -0.296605        -0.620926
 H        -0.474423        -0.747931         1.225533
 H         2.717645        -1.982745        -0.744636
 H         2.022257        -0.694693        -1.862512
 H         4.224193         0.291955        -1.207840
 H         3.795959        -0.928123         1.640852
 H         4.436038         0.809841         1.534799
 H         1.501948         0.998459         3.152401
 H         2.711661         2.551323        -1.177778
