19
Iteration:  3436charge 0 multiplicity 1
 C        -0.122161        -0.470535         0.502417
 C         1.367599        -0.025296         0.145374
 C         2.237432        -0.769293        -0.977101
 C         3.378743         0.270902        -0.605194
 C         3.839847        -0.087668         0.809135
 C         2.320291         0.253978         1.233198
 O         1.922592         0.286072         2.553988
 C         2.141815         1.178744         0.017958
 O         1.975886         2.602850        -0.118780
 H        -0.209274        -1.598736         0.552328
 H        -0.423708        -0.100561         1.445110
 H        -0.814404         0.026129        -0.182645
 H         2.450172        -1.826753        -0.878403
 H         1.823565        -0.499596        -1.951687
 H         4.166974         0.476881        -1.368844
 H         4.253878        -1.156540         1.012010
 H         4.615474         0.474060         1.177995
 H         0.986224        -0.017345         2.630913
 H         1.025034         2.764365        -0.333089
