19
Iteration:   969
 C        -0.139678        -0.382816         0.291542
 C         1.319126        -0.254499         0.138636
 C         2.340612        -1.062173        -0.686963
 C         3.420378         0.119545        -0.540972
 C         3.871753         0.019899         1.019791
 C         2.340183         0.304040         1.275436
 O         1.575443         0.897945         2.217792
 C         2.190302         0.967203        -0.076792
 O         2.094996         2.371244         0.008133
 H        -0.426922        -0.207402         1.362744
 H        -0.700561         0.179853        -0.474143
 H        -0.359865        -1.445429         0.085023
 H         2.764425        -1.928071        -0.184858
 H         2.065391        -1.370357        -1.635213
 H         4.091384         0.520537        -1.446866
 H         4.240718        -1.044500         1.250238
 H         4.618477         0.838881         1.317314
 H         1.739151         1.836417         2.130942
 H         1.327179         2.747776        -0.493420
