19
Iteration:  1671
 C         0.046262        -0.315639         0.538090
 C         1.482835        -0.195458         0.190503
 C         2.316147        -1.086795        -0.681645
 C         3.410092         0.074698        -0.577423
 C         3.821052        -0.013530         1.019943
 C         2.408304         0.370510         1.232191
 O         1.735629         0.845140         2.439673
 C         2.231399         1.061372        -0.202886
 O         1.618167         2.365480        -0.340613
 H        -0.351253         0.681077         0.569402
 H        -0.373809        -0.768723        -0.389663
 H        -0.188761        -0.919751         1.411057
 H         2.777243        -2.014139        -0.269257
 H         1.905685        -1.230715        -1.684113
 H         4.301624         0.046495        -1.212196
 H         4.175014        -0.990407         1.309650
 H         4.606406         0.804268         1.222818
 H         1.043513         0.238637         2.718339
 H         2.040265         3.018585        -0.919395
