19
Iteration:  1502charge 0 multiplicity 1
 C        -0.022182        -0.409692         0.190832
 C         1.436523        -0.245683         0.208061
 C         2.301486        -1.089039        -0.647421
 C         3.395186         0.128257        -0.513374
 C         3.807026         0.039453         0.937335
 C         2.327857         0.426230         1.353059
 O         1.857210         0.919872         2.590387
 C         2.234035         1.053168        -0.030093
 O         1.721587         2.284772        -0.507795
 H        -0.431756        -0.061473         1.132856
 H        -0.377170         0.149747        -0.627720
 H        -0.319963        -1.424856         0.144316
 H         2.709619        -2.004791        -0.180169
 H         2.038092        -1.241536        -1.699751
 H         4.161078         0.492339        -1.213898
 H         4.059186        -0.928076         1.282901
 H         4.455466         0.769407         1.224219
 H         1.202139         0.280878         2.887031
 H         1.681806         2.838761         0.311025
