19
Iteration:  1516charge 0 multiplicity 1
 C        -0.051154        -0.306461         0.285708
 C         1.452571        -0.233525         0.195940
 C         2.426519        -1.079559        -0.694979
 C         3.351536         0.093624        -0.543449
 C         3.839121         0.067061         1.000922
 C         2.352817         0.373357         1.306380
 O         1.802729         0.914075         2.502589
 C         2.203291         1.030461        -0.035261
 O         1.782577         2.231724        -0.396236
 H        -0.536945         0.203815         1.177991
 H        -0.608586         0.177893        -0.552953
 H        -0.335334        -1.374352         0.213067
 H         2.652896        -2.102073        -0.369933
 H         1.836603        -1.235839        -1.633050
 H         4.130938         0.193192        -1.438276
 H         4.545146        -0.655005         1.312814
 H         4.358829         1.067542         1.107769
 H         0.890341         0.593748         2.697925
 H         1.012026         2.431906         0.167363
