19
Iteration:  4514charge 0 multiplicity 1
 C        -0.222703        -0.278709         0.073224
 C         1.230931        -0.023742        -0.026030
 C         2.117025        -0.227256        -1.306140
 C         3.233598         0.662110        -0.675908
 C         3.767760        -0.375465         0.563720
 C         2.343839        -0.043249         1.063511
 O         2.044080        -0.126542         2.448662
 C         2.217103         1.159589         0.346781
 O         2.161832         2.571972         0.845459
 H        -0.693218        -1.143729        -0.469523
 H        -0.318712        -0.671021         1.065428
 H        -0.810900         0.593021        -0.164250
 H         2.133810        -1.262742        -1.508580
 H         1.705351         0.328393        -2.185303
 H         3.770706         1.441376        -1.325083
 H         3.969498        -1.355718         0.145139
 H         4.500733         0.020529         1.199463
 H         2.199822        -0.998177         2.860213
 H         2.209050         2.404167         1.800715
