19
Iteration:  2681
 C         0.030953        -0.415590         0.501266
 C         1.384828        -0.164414         0.012461
 C         2.267025        -0.914798        -0.993372
 C         3.358509         0.169668        -0.508535
 C         3.731408        -0.074667         1.086062
 C         2.292754         0.403833         1.327205
 O         1.828622         0.544966         2.595901
 C         2.189086         1.145533         0.006755
 O         1.906477         2.428085        -0.402968
 H        -0.801779        -0.421004        -0.223153
 H         0.058403        -1.382869         0.914978
 H        -0.122875         0.343327         1.251200
 H         2.523728        -1.916755        -0.719241
 H         1.807736        -0.816444        -1.995663
 H         4.185193         0.511984        -1.189823
 H         4.030264        -1.212101         1.208700
 H         4.614746         0.645028         1.396332
 H         1.872065         1.492453         2.735637
 H         1.215493         2.361191        -1.076541
