19
Iteration:  2438
 C        -0.124364        -0.306973         0.167194
 C         1.372012        -0.224974         0.116271
 C         2.352827        -1.097087        -0.721576
 C         3.364679         0.081747        -0.507556
 C         3.817165         0.046094         1.028973
 C         2.410059         0.377608         1.320965
 O         2.041270         0.829063         2.612069
 C         2.135805         1.002064        -0.033830
 O         1.662590         2.293575        -0.283440
 H        -0.399118         0.273694        -0.855080
 H        -0.770913        -1.238911         0.229311
 H        -0.555843         0.364762         0.895542
 H         2.720769        -2.108495        -0.417521
 H         1.891032        -1.250610        -1.759125
 H         4.157801         0.399926        -1.145076
 H         4.164234        -0.948964         1.339455
 H         4.519633         0.853908         1.267606
 H         1.977430         1.821896         2.532655
 H         1.296549         2.293435        -1.207621
