19
Iteration:  3741charge 0 multiplicity 1
 C        -0.100594        -0.222678         0.355175
 C         1.416895        -0.048487         0.025269
 C         2.228303        -0.606273        -1.216795
 C         3.360137         0.320691        -0.753766
 C         3.836688        -0.340762         0.758283
 C         2.410250         0.082983         1.229487
 O         1.968619         0.359410         2.576916
 C         2.263202         1.210384         0.100441
 O         1.673734         2.442396         0.376079
 H        -0.298633         0.605675         1.071173
 H        -0.729908         0.106984        -0.529045
 H        -0.326055        -1.148341         0.894485
 H         2.533392        -1.643174        -1.077192
 H         1.873191        -0.382585        -2.227448
 H         4.253069         0.359255        -1.413732
 H         4.168498        -1.412350         0.845386
 H         4.605933         0.316971         1.286590
 H         1.378299        -0.323623         2.954403
 H         1.487031         2.909388        -0.440309
