19
Iteration:  2946
 C        -0.085684        -0.485865         0.413867
 C         1.364892        -0.199499         0.153173
 C         2.332406        -0.857907        -0.942380
 C         3.326908         0.257107        -0.547767
 C         3.681430        -0.166301         0.898346
 C         2.329925         0.287098         1.215602
 O         1.906992         0.711154         2.427804
 C         2.181131         1.083607        -0.034218
 O         1.833089         2.427990        -0.092513
 H        -0.504409        -1.004912        -0.457003
 H        -0.000196        -1.143852         1.251978
 H        -0.605181         0.505410         0.611995
 H         2.664104        -1.906346        -0.769786
 H         1.778487        -0.919494        -1.914929
 H         4.093788         0.650464        -1.233112
 H         3.984766        -1.120262         1.126055
 H         4.463724         0.587352         1.172786
 H         2.622094         1.140769         2.908731
 H         2.279008         2.935723         0.625523
