19
Iteration:  1156charge 0 multiplicity 1
 C        -0.113011        -0.525024         0.150787
 C         1.353735        -0.144257         0.091622
 C         2.349089        -0.858855        -0.780081
 C         3.482691         0.086459        -0.364574
 C         3.840331        -0.071585         1.092159
 C         2.291683         0.359486         1.305634
 O         1.764877         0.968783         2.461819
 C         2.223320         1.034893        -0.045342
 O         1.828195         2.281431        -0.334630
 H        -0.629943         0.179988         0.827930
 H        -0.601012        -0.596103        -0.821294
 H        -0.244037        -1.466065         0.636940
 H         2.396361        -1.996563        -0.377395
 H         2.179112        -0.864267        -1.838986
 H         4.281696         0.342297        -0.979962
 H         4.062456        -1.053286         1.395572
 H         4.445262         0.634705         1.603680
 H         1.136696         0.318520         2.753553
 H         2.546080         2.904935        -0.072853
