19
Iteration:  2980
 C        -0.135716        -0.530766         0.159785
 C         1.351405        -0.175226         0.167848
 C         2.198240        -0.903300        -0.911198
 C         3.281093         0.124588        -0.573089
 C         3.849711        -0.110616         0.797575
 C         2.411353         0.286396         1.346739
 O         1.970983         0.794786         2.501481
 C         2.146352         1.074306        -0.010969
 O         1.913180         2.459386         0.036259
 H        -0.292442        -1.569166        -0.100315
 H        -0.527647        -0.483674         1.215583
 H        -0.970696         0.074512        -0.303055
 H         2.538997        -1.977593        -0.762083
 H         1.722886        -0.709092        -1.902675
 H         4.012131         0.601409        -1.270476
 H         4.325767        -1.031179         1.029455
 H         4.524314         0.707419         0.986022
 H         2.403503         1.612846         2.767443
 H         1.092751         2.494930         0.592907
