19
Iteration:  2423charge 0 multiplicity 1
 C        -0.094383        -0.181353         0.197747
 C         1.442925        -0.362958         0.264750
 C         2.354468        -1.052545        -0.750784
 C         3.403697         0.122701        -0.509410
 C         3.783173        -0.083708         1.008900
 C         2.393510         0.467158         1.295244
 O         2.006541         0.808237         2.567886
 C         2.149393         1.020377        -0.024395
 O         1.642087         2.290176        -0.361124
 H        -0.544380         0.537506        -0.500277
 H        -0.443021        -1.173300        -0.144402
 H        -0.541633        -0.009535         1.212107
 H         2.666825        -1.991633        -0.278760
 H         2.016022        -1.107032        -1.790940
 H         4.119913         0.380907        -1.319316
 H         4.190909        -0.988342         1.471242
 H         4.637394         0.759224         1.376989
 H         1.527741         1.653665         2.546219
 H         1.002124         2.173725        -1.088238
