19
Iteration:  3754
 C        -0.023113        -0.193829         0.395926
 C         1.390389        -0.066511        -0.001974
 C         2.203198        -0.594098        -1.177472
 C         3.351308         0.342433        -0.661514
 C         3.763639        -0.334438         0.776216
 C         2.442916         0.182621         1.213338
 O         1.971816         0.313154         2.506123
 C         2.248170         1.135094         0.168453
 O         1.742570         2.445472         0.328505
 H        -0.468967         0.721115         0.800656
 H        -0.609458        -0.647038        -0.388908
 H        -0.171387        -1.095256         1.048322
 H         2.433990        -1.683985        -1.345097
 H         1.691896        -0.240858        -2.099230
 H         3.984260         0.974458        -1.243390
 H         3.994910        -1.460130         0.742838
 H         4.562331         0.210649         1.143596
 H         1.305767        -0.390368         2.599429
 H         1.535327         2.786412        -0.575539
