19
Iteration:  3016charge 0 multiplicity 1
 C        -0.114816        -0.413079         0.320502
 C         1.349759        -0.230414         0.174320
 C         2.280034        -0.870985        -0.867660
 C         3.311336         0.202611        -0.597766
 C         3.787026        -0.129365         0.789981
 C         2.414550         0.279811         1.216991
 O         1.962260         0.602600         2.597670
 C         2.155970         1.089460        -0.059077
 O         1.809493         2.492038         0.019726
 H        -0.316392        -1.313956         0.963768
 H        -0.456197         0.507192         0.955160
 H        -0.512222        -0.539113        -0.706081
 H         2.654863        -1.941635        -0.681423
 H         1.890315        -0.771606        -1.935057
 H         4.093405         0.565834        -1.260782
 H         4.275975        -1.181923         0.784043
 H         4.471057         0.568935         1.178290
 H         2.028168         1.561070         2.535254
 H         1.514704         2.859736        -0.851921
