19
Iteration:  1266charge 0 multiplicity 1
 C        -0.071926        -0.271388         0.389402
 C         1.418633        -0.261923         0.124976
 C         2.476567        -1.058399        -0.709253
 C         3.445401         0.156549        -0.464954
 C         3.826852         0.101536         1.041038
 C         2.346252         0.459470         1.240940
 O         1.521674         0.616762         2.448312
 C         2.194439         1.041936        -0.042369
 O         1.889331         2.352123        -0.396470
 H        -0.255633         0.395926         1.237014
 H        -0.533493         0.213605        -0.480506
 H        -0.614232        -1.183809         0.482405
 H         2.860157        -2.094896        -0.419637
 H         1.994152        -1.312286        -1.638642
 H         4.135946         0.512395        -1.235512
 H         4.098229        -0.832526         1.493064
 H         4.466977         0.875339         1.451170
 H         2.112934         0.446962         3.233261
 H         1.714575         2.433175        -1.343439
