19
Iteration:  4208
 C        -0.163049        -0.211701         0.323859
 C         1.376856        -0.052076         0.015286
 C         2.114491        -0.371097        -1.244544
 C         3.297319         0.505149        -0.595690
 C         3.711193        -0.296807         0.604239
 C         2.403714        -0.030601         1.161039
 O         2.031316        -0.205802         2.510876
 C         2.244804         1.282727         0.293537
 O         1.890522         2.666933         0.342698
 H        -0.705447         0.729754        -0.013822
 H        -0.656153        -1.107335        -0.153720
 H        -0.363446        -0.261447         1.386691
 H         2.417893        -1.410519        -1.348102
 H         1.749465         0.055346        -2.167541
 H         4.173751         0.940965        -1.043403
 H         3.901669        -1.432860         0.510656
 H         4.479657         0.105251         1.311939
 H         2.187016        -1.141518         2.761566
 H         2.442628         3.197437         0.987621
