19
Iteration:  3018charge 0 multiplicity 1
 C        -0.118597        -0.401664         0.346019
 C         1.347000        -0.249199         0.148220
 C         2.289190        -0.866502        -0.879902
 C         3.310672         0.204920        -0.592716
 C         3.784503        -0.140052         0.794557
 C         2.416718         0.300268         1.206567
 O         1.960346         0.590567         2.607537
 C         2.154962         1.099688        -0.048849
 O         1.800422         2.487357         0.012228
 H        -0.321231        -1.277191         1.024317
 H        -0.441266         0.514575         0.882138
 H        -0.466847        -0.535647        -0.637121
 H         2.633268        -1.915637        -0.712782
 H         1.976332        -0.831411        -1.946089
 H         4.080776         0.527816        -1.252047
 H         4.255052        -1.223055         0.769667
 H         4.477775         0.656746         1.181843
 H         2.011764         1.558413         2.547313
 H         1.605386         2.873850        -0.873148
