19
Iteration:  4583
 C        -0.103136        -0.248971         0.340203
 C         1.364537         0.174973        -0.078971
 C         2.140031        -0.140517        -1.331142
 C         3.288771         0.630145        -0.645702
 C         3.672975        -0.428739         0.407308
 C         2.418540        -0.074061         1.100171
 O         1.965187        -0.364471         2.430100
 C         2.284277         1.222218         0.397035
 O         2.005312         2.563660         0.723432
 H        -0.232427        -0.754246         1.344288
 H        -0.803263         0.580060         0.470486
 H        -0.563348        -1.018732        -0.289234
 H         2.414515        -1.131832        -1.736517
 H         1.744337         0.536979        -2.080424
 H         3.854124         1.335833        -1.172680
 H         3.706701        -1.442728         0.098907
 H         4.527154        -0.146964         1.099657
 H         0.966853        -0.478649         2.447508
 H         2.278741         2.665787         1.683464
