19
Iteration:   935
 C        -0.061312        -0.434110         0.227691
 C         1.389920        -0.246070         0.096117
 C         2.351589        -1.053342        -0.793064
 C         3.449169         0.002747        -0.537253
 C         3.722904        -0.056425         1.188672
 C         2.293371         0.356649         1.233400
 O         1.714593         0.959001         2.422527
 C         2.204420         1.015170        -0.122802
 O         1.890448         2.466411        -0.219076
 H        -0.490473        -0.168494         1.207122
 H        -0.614991         0.159249        -0.508202
 H        -0.197190        -1.502450        -0.010906
 H         2.525823        -2.086170        -0.497763
 H         1.951940        -1.000976        -1.749371
 H         4.452763         0.222530        -1.134219
 H         4.061766        -1.093854         1.430363
 H         4.574405         0.666688         1.465746
 H         2.458840         1.365899         2.885787
 H         1.586584         2.593845         0.704231
