19
Iteration:   390
 C        -0.004866         0.092056         0.204868
 C         1.472688        -0.218707         0.171182
 C         2.376551        -1.031140        -0.813796
 C         3.463521         0.130438        -0.405547
 C         3.767999        -0.126939         1.134782
 C         2.358775         0.403451         1.338354
 O         1.728248         0.689105         2.582353
 C         2.310698         1.032466        -0.029604
 O         1.637080         2.128155        -0.461713
 H        -0.232300         1.073910         0.585569
 H        -0.318772         0.030796        -0.838953
 H        -0.536098        -0.667382         0.769282
 H         2.531000        -2.111300        -0.518324
 H         2.056322        -1.033983        -1.954877
 H         4.201563         0.448536        -1.072298
 H         4.257563        -1.027653         1.502568
 H         4.333003         0.702581         1.565205
 H         0.878597         0.331884         2.320533
 H         2.233158         2.756709        -0.915367
