19
Iteration:  3341
 C        -0.007136        -0.203638         0.378545
 C         1.461384        -0.170444         0.035821
 C         2.267646        -0.785363        -0.988305
 C         3.368952         0.194454        -0.704431
 C         3.798381        -0.170714         0.803723
 C         2.392321         0.254285         1.255104
 O         1.870844         0.593255         2.491514
 C         2.202435         1.081768         0.073395
 O         1.618396         2.343547         0.111439
 H        -0.657239        -0.902378        -0.108437
 H        -0.081101        -0.389113         1.498270
 H        -0.318341         0.911760         0.306620
 H         2.588229        -1.871063        -0.892628
 H         1.753693        -0.525356        -1.944606
 H         4.156732         0.394203        -1.442376
 H         4.051210        -1.171345         0.999908
 H         4.700766         0.211158         1.319087
 H         2.144824        -0.144234         3.092450
 H         2.213021         3.061458        -0.146877
