19
Iteration:  2359charge 0 multiplicity 1
 C        -0.055018        -0.424907         0.644230
 C         1.373176        -0.250327         0.165223
 C         2.372301        -0.952283        -0.789424
 C         3.436535         0.101935        -0.518776
 C         3.689539        -0.037633         1.047979
 C         2.304691         0.509334         1.219149
 O         1.875628         0.716258         2.582017
 C         2.156935         1.098370        -0.116650
 O         1.907102         2.371241        -0.584962
 H        -0.258391         0.324465         1.484010
 H        -0.741272        -0.247821        -0.256670
 H        -0.089273        -1.432687         1.053874
 H         2.492282        -1.989993        -0.416831
 H         1.911541        -1.133118        -1.813849
 H         4.336049         0.338916        -1.124953
 H         3.891983        -1.000002         1.375926
 H         4.335349         0.826437         1.398457
 H         0.927879         1.019973         2.582808
 H         1.539601         2.334065        -1.491297
