19
Iteration:  4381charge 0 multiplicity 1
 C        -0.153796        -0.166073         0.346251
 C         1.349138         0.054972         0.088759
 C         2.088951        -0.267311        -1.304976
 C         3.316743         0.574002        -0.636881
 C         3.731180        -0.295327         0.629274
 C         2.403059         0.006462         1.232795
 O         2.118602        -0.531311         2.496543
 C         2.224256         1.296360         0.297807
 O         1.912773         2.651921         0.342508
 H        -0.578072         0.309971         1.260052
 H        -0.758714         0.381065        -0.424988
 H        -0.491493        -1.206058         0.263141
 H         2.406711        -1.265760        -1.751041
 H         1.390241         0.250909        -2.045339
 H         4.122511         1.216098        -1.082069
 H         3.885431        -1.401431         0.524693
 H         4.484515         0.010157         1.298696
 H         1.174362        -0.655389         2.293320
 H         2.560228         2.942551         0.990306
