19
Iteration:  1095
 C        -0.158071        -0.100730         0.286099
 C         1.397990        -0.192319         0.084920
 C         2.469648        -1.018794        -0.763898
 C         3.471741         0.100677        -0.374874
 C         3.785044         0.095007         1.124339
 C         2.342303         0.330437         1.288501
 O         1.626874         0.551226         2.467533
 C         2.277113         1.063271        -0.037669
 O         1.834398         2.268326        -0.536422
 H        -0.486591         0.923763         0.531908
 H        -0.722315        -0.358824        -0.646209
 H        -0.442021        -0.708493         1.195438
 H         2.715371        -1.930358        -0.306025
 H         2.206917        -1.181570        -1.858227
 H         4.249410         0.450098        -1.103789
 H         4.219753        -0.865751         1.617006
 H         4.376644         0.974998         1.486733
 H         2.267116         0.632408         3.176374
 H         1.398579         2.580007         0.273036
