19
Iteration:  4688charge 0 multiplicity 1
 C        -0.082176         0.125859         0.320944
 C         1.393134         0.040543        -0.023339
 C         2.191659        -0.086914        -1.366962
 C         3.344577         0.567314        -0.673021
 C         3.767177        -0.433682         0.504497
 C         2.345808        -0.119784         1.052727
 O         2.045831        -0.379777         2.371478
 C         2.207862         1.248895         0.375833
 O         1.778237         2.400923         0.789445
 H        -0.551367         0.897693        -0.356110
 H        -0.515369        -0.863809         0.136791
 H        -0.380264         0.315530         1.395584
 H         2.235678        -1.080331        -1.944332
 H         1.580136         0.682478        -1.961508
 H         4.186880         0.949824        -1.214005
 H         4.073768        -1.518782         0.220496
 H         4.535845        -0.024163         1.122309
 H         1.920551        -1.338983         2.553451
 H         1.915897         2.483388         1.774293
