19
Iteration:  1955
 C        -0.033583        -0.343976         0.678667
 C         1.401568        -0.145375         0.230614
 C         2.404102        -0.976964        -0.734178
 C         3.389474         0.195396        -0.575964
 C         3.813025        -0.057468         0.972198
 C         2.335250         0.384910         1.261296
 O         1.733604         0.673904         2.543347
 C         2.259882         1.121867        -0.110718
 O         1.786859         2.245384        -0.655042
 H        -0.087926         0.538276         1.359663
 H        -0.968374        -0.108480         0.034960
 H        -0.294948        -1.128478         1.393007
 H         2.703638        -2.015115        -0.440775
 H         1.942535        -1.047049        -1.747452
 H         4.201227         0.560225        -1.192949
 H         4.159844        -1.082649         1.263023
 H         4.499953         0.662610         1.213755
 H         2.020037         1.565493         2.740870
 H         0.858573         2.169900        -0.942719
