19
Iteration:  2263
 C        -0.138016        -0.400584         0.459172
 C         1.414121        -0.262704         0.172090
 C         2.382398        -1.055928        -0.783802
 C         3.467761         0.076392        -0.513383
 C         3.771153        -0.136395         1.044153
 C         2.423076         0.484175         1.227479
 O         1.865165         1.058218         2.369268
 C         2.175302         0.963783        -0.114121
 O         1.704342         2.287772        -0.231743
 H        -0.260446        -0.180746         1.527573
 H        -0.696367         0.379318        -0.120116
 H        -0.516498        -1.360492         0.291526
 H         2.758615        -1.994135        -0.315049
 H         2.012267        -1.358881        -1.779038
 H         4.389139         0.441419        -1.024935
 H         4.088585        -1.305476         1.078648
 H         4.457367         0.563927         1.360324
 H         1.899658         2.043020         2.336803
 H         1.004622         2.186644        -0.885717
