19
Iteration:  4057charge 0 multiplicity 1
 C        -0.174215        -0.258394         0.174501
 C         1.331864        -0.089642        -0.039743
 C         2.086370        -0.497889        -1.250888
 C         3.354720         0.421509        -0.681341
 C         3.873975        -0.307457         0.580053
 C         2.397715         0.054641         1.264629
 O         2.081415         0.124180         2.610016
 C         2.200202         1.125253         0.311237
 O         1.837413         2.585432         0.457360
 H        -0.680916        -0.971110        -0.521125
 H        -0.399416        -0.628591         1.212523
 H        -0.603540         0.737609         0.109255
 H         2.334580        -1.553574        -1.573506
 H         1.727263         0.013412        -2.178013
 H         3.864651         1.000193        -1.439623
 H         4.110981        -1.337634         0.450916
 H         4.736802         0.141733         1.260006
 H         1.149434        -0.165555         2.722605
 H         2.418488         2.993584         1.169722
