19
Iteration:   504
 C        -0.072292        -0.576956         0.479572
 C         1.386791        -0.228620         0.120088
 C         2.391809        -0.879945        -0.884221
 C         3.397850         0.168745        -0.393009
 C         3.571385        -0.144268         1.054619
 C         2.195375         0.276910         1.223614
 O         1.577976         0.869129         2.361679
 C         2.243017         1.108607        -0.056618
 O         2.212502         2.442650        -0.342648
 H        -0.629247         0.110086         1.189372
 H        -0.673269        -0.673403        -0.457601
 H        -0.215527        -1.647484         0.785006
 H         2.704991        -2.051403        -0.783042
 H         2.018875        -0.722221        -1.921148
 H         4.322446         0.376557        -1.048861
 H         3.909281        -1.139934         1.388462
 H         4.295177         0.562530         1.447937
 H         2.329592         1.469434         2.655841
 H         2.117316         3.009348         0.469860
