19
Iteration:  2456charge 0 multiplicity 1
 C        -0.149073        -0.345476         0.138386
 C         1.336918        -0.271749         0.181153
 C         2.311392        -1.018140        -0.674563
 C         3.436289         0.106040        -0.527947
 C         3.812229        -0.025023         0.893088
 C         2.297983         0.391108         1.336047
 O         1.964973         0.839466         2.583689
 C         2.192932         1.010892        -0.027033
 O         1.745595         2.311979        -0.242897
 H        -0.535372        -0.591859        -0.775831
 H        -0.178731        -1.197974         0.833203
 H        -0.541785         0.498812         0.710494
 H         2.623336        -2.024892        -0.370057
 H         2.213166        -1.159697        -1.734952
 H         4.054396         0.239681        -1.426919
 H         4.275886        -0.866963         1.377555
 H         4.280548         1.097075         1.126328
 H         2.310581         1.768600         2.694863
 H         1.459723         2.607942        -1.136197
