19
Iteration:  4446
 C        -0.156010        -0.010302         0.267192
 C         1.388676         0.022288         0.042844
 C         2.218297        -0.220223        -1.311377
 C         3.373755         0.491810        -0.707938
 C         3.733985        -0.360291         0.456328
 C         2.449772        -0.037533         1.161564
 O         2.051689        -0.213143         2.474353
 C         2.189558         1.162570         0.336854
 O         1.741859         2.423768         0.696582
 H        -0.677598         0.796297        -0.293716
 H        -0.645505        -0.958173         0.018579
 H        -0.157453         0.318971         1.310448
 H         2.551961        -1.163449        -1.711117
 H         1.788584         0.466631        -2.067650
 H         4.017790         0.958552        -1.526707
 H         3.947611        -1.457312         0.356248
 H         4.501333        -0.050755         1.087500
 H         1.392876        -0.881248         2.601778
 H         2.409186         2.967943         1.139862
