19
Iteration:  2865
 C        -0.159664        -0.177191         0.437937
 C         1.351071        -0.097654         0.178865
 C         2.432375        -0.874410        -1.025047
 C         3.334246         0.238296        -0.523370
 C         3.778956        -0.046483         0.906347
 C         2.332076         0.308077         1.374241
 O         2.009461         0.282674         2.797637
 C         2.162873         1.162823         0.062567
 O         1.691979         2.303514        -0.582847
 H        -0.513693         0.894262         0.458387
 H        -0.617987        -0.615711        -0.507105
 H        -0.483273        -0.778480         1.266950
 H         2.824569        -1.847287        -0.747222
 H         2.144313        -0.648287        -2.051962
 H         3.965455         0.611228        -1.364685
 H         4.052182        -1.103887         0.966571
 H         4.411049         0.684491         1.555001
 H         2.037888         1.185079         3.124792
 H         2.366421         3.028048        -0.503321
