19
Iteration:  1879
 C        -0.105184        -0.514996         0.306237
 C         1.296017        -0.289929         0.162417
 C         2.282911        -1.093685        -0.692149
 C         3.308533         0.149735        -0.510728
 C         3.828069        -0.071301         0.918211
 C         2.406322         0.462833         1.278763
 O         2.002173         0.977615         2.494697
 C         2.171178         1.020253        -0.042517
 O         1.820602         2.399589        -0.270245
 H        -0.731608         0.339749         0.131419
 H        -0.403665        -1.110843        -0.593372
 H        -0.528809        -1.063077         1.123483
 H         2.622122        -1.912295        -0.054197
 H         2.051130        -1.374739        -1.714233
 H         3.727531         0.374356        -1.431956
 H         4.103083        -1.091211         1.232175
 H         4.574067         0.596138         1.270269
 H         2.459926         1.862554         2.623494
 H         0.912491         2.367943        -0.646611
