19
Iteration:  1675
 C         0.081509        -0.292699         0.528245
 C         1.488103        -0.212232         0.163979
 C         2.289968        -1.106557        -0.699809
 C         3.427604         0.066731        -0.538210
 C         3.808441        -0.033311         0.998571
 C         2.415412         0.412341         1.253903
 O         1.751455         0.854456         2.435192
 C         2.230609         1.071977        -0.198379
 O         1.580751         2.339613        -0.327319
 H        -0.273836         0.761865         0.539610
 H        -0.449625        -0.692355        -0.379908
 H        -0.202809        -1.013745         1.359688
 H         2.821103        -1.958605        -0.273088
 H         1.933619        -1.253524        -1.719522
 H         4.272220         0.008114        -1.168072
 H         4.306660        -0.945609         1.315433
 H         4.470148         0.791816         1.191657
 H         0.959569         0.300412         2.679912
 H         2.137083         2.997494        -0.804171
