19
Iteration:  2693
 C        -0.046513        -0.576558         0.526596
 C         1.354846        -0.098473         0.105319
 C         2.286589        -0.848950        -0.914463
 C         3.319251         0.201016        -0.531787
 C         3.701293        -0.100364         1.074441
 C         2.336812         0.354145         1.253164
 O         1.833620         0.538678         2.566134
 C         2.180407         1.152166        -0.043382
 O         2.030644         2.492530        -0.448787
 H        -0.690963        -0.903669        -0.300997
 H         0.055855        -1.315432         1.269583
 H        -0.621963         0.201354         1.043732
 H         2.538845        -1.896640        -0.795504
 H         1.903986        -0.747502        -1.949978
 H         4.074941         0.605295        -1.239818
 H         3.909140        -1.167924         1.562654
 H         4.471963         0.622778         1.450835
 H         1.990188         1.462850         2.862514
 H         1.153023         2.613981        -0.854151
