19
Iteration:  4686charge 0 multiplicity 1
 C        -0.085940         0.148307         0.315850
 C         1.385487         0.046310         0.000336
 C         2.194728        -0.108136        -1.368486
 C         3.342745         0.584178        -0.674387
 C         3.748525        -0.432858         0.513679
 C         2.356609        -0.122519         1.050232
 O         2.068193        -0.396512         2.361162
 C         2.195755         1.240806         0.375032
 O         1.771663         2.395378         0.777280
 H        -0.486369         0.989828        -0.294806
 H        -0.555032        -0.824495         0.054985
 H        -0.451677         0.271300         1.361117
 H         2.263867        -1.109364        -1.926542
 H         1.658128         0.686420        -1.868099
 H         4.267134         1.009958        -1.165728
 H         4.039492        -1.515239         0.211467
 H         4.517310         0.010893         1.106511
 H         1.962237        -1.298303         2.624592
 H         1.895104         2.470375         1.723216
