19
Iteration:  4529charge 0 multiplicity 1
 C        -0.124862        -0.328846         0.173447
 C         1.280062         0.141842        -0.073997
 C         2.033212        -0.161340        -1.331237
 C         3.242861         0.591074        -0.623497
 C         3.740884        -0.324179         0.469142
 C         2.373728        -0.092730         1.125325
 O         1.970527        -0.134160         2.430727
 C         2.168627         1.224961         0.369278
 O         2.187710         2.459595         0.802993
 H        -0.207545        -1.331407        -0.294004
 H        -0.432606        -0.316120         1.265732
 H        -0.915152         0.309835        -0.343433
 H         2.461531        -1.210284        -1.591690
 H         1.599187         0.281323        -2.247126
 H         4.004503         1.047847        -1.178104
 H         4.100066        -1.342958         0.327243
 H         4.536358         0.274471         1.071618
 H         1.765690        -1.077717         2.736520
 H         2.189611         2.510705         1.804382
