19
Iteration:  2224charge 0 multiplicity 1
 C         0.063573        -0.239299         0.451707
 C         1.502761        -0.221558         0.247463
 C         2.244152        -1.081162        -0.761892
 C         3.430762         0.043576        -0.513639
 C         3.818552        -0.066132         0.981891
 C         2.408389         0.477473         1.324269
 O         1.770020         0.819888         2.449834
 C         2.250104         1.071270        -0.090710
 O         1.636722         2.243880        -0.412212
 H        -0.299913         0.418368         1.245709
 H        -0.449811         0.114527        -0.459201
 H        -0.410482        -1.285243         0.628999
 H         2.528888        -2.098178        -0.441272
 H         1.700406        -1.120474        -1.712764
 H         4.249441         0.175879        -1.180187
 H         4.213140        -0.884099         1.515927
 H         4.534545         0.891536         1.073466
 H         2.039562         1.711461         2.762242
 H         0.963477         2.211941        -1.134762
