19
Iteration:  3779
 C        -0.098804        -0.351808         0.425996
 C         1.371185        -0.119622         0.117589
 C         2.210266        -0.498847        -1.140703
 C         3.305623         0.410782        -0.695275
 C         3.766123        -0.298646         0.741503
 C         2.400696         0.122925         1.239417
 O         1.907277         0.157242         2.587631
 C         2.213110         1.205227         0.138766
 O         1.968054         2.610092         0.158554
 H        -0.583430         0.570969         0.104748
 H        -0.503503        -1.267770         0.013628
 H        -0.403853        -0.585871         1.484112
 H         2.586004        -1.549287        -1.322048
 H         1.702714        -0.147415        -2.077104
 H         4.113999         0.857343        -1.337072
 H         4.067260        -1.338185         0.551498
 H         4.598796         0.272169         1.161579
 H         1.329751        -0.609855         2.632134
 H         1.278399         2.849660        -0.487154
