19
Iteration:  4767charge 0 multiplicity 1
 C        -0.145149        -0.439059         0.042848
 C         1.214541         0.158980        -0.102709
 C         1.956533         0.028445        -1.309095
 C         3.180839         0.604612        -0.680583
 C         3.693444        -0.387960         0.480283
 C         2.357570        -0.034122         1.180040
 O         2.018361        -0.411718         2.476469
 C         2.226085         1.299555         0.437538
 O         2.299960         2.597283         0.871834
 H        -0.120169        -1.518718        -0.263443
 H        -0.485101        -0.472923         1.069309
 H        -0.846143         0.180318        -0.550941
 H         2.147730        -0.936582        -1.826877
 H         1.896649         0.639885        -2.267459
 H         3.867898         1.218835        -1.255006
 H         3.974528        -1.435274         0.290339
 H         4.549494         0.097187         1.061877
 H         1.502607        -1.205847         2.494063
 H         2.821493         2.658056         1.697097
