19
Iteration:  1204charge 0 multiplicity 1
 C        -0.094369        -0.635707         0.258492
 C         1.407970        -0.170246         0.056603
 C         2.452942        -0.908625        -0.749857
 C         3.422488         0.167781        -0.381436
 C         3.627617        -0.199080         1.082845
 C         2.292601         0.565198         1.350142
 O         1.817616         0.824657         2.589286
 C         2.149918         1.083957        -0.022281
 O         1.970558         2.400439        -0.549153
 H        -0.526450        -0.462355         1.259196
 H        -0.705396        -0.196447        -0.576056
 H        -0.217620        -1.768182         0.126179
 H         2.814977        -1.983837        -0.665443
 H         2.052844        -0.858632        -1.834063
 H         4.270432         0.389915        -1.127997
 H         3.538846        -1.327498         1.360347
 H         4.526231         0.250775         1.598050
 H         1.213304         1.623563         2.496196
 H         1.518475         2.871497         0.153131
