19
Iteration:  2158
 C        -0.084490        -0.475116         0.523938
 C         1.387917        -0.114519         0.245069
 C         2.232257        -1.012167        -0.644422
 C         3.346330         0.109254        -0.478643
 C         3.746553         0.014626         0.964388
 C         2.375458         0.575861         1.252094
 O         1.844334         0.559930         2.650082
 C         2.174801         1.160419        -0.197395
 O         1.916367         2.379505        -0.664482
 H        -0.753264         0.386456         0.571675
 H        -0.355207        -1.162489        -0.286452
 H        -0.087612        -1.067502         1.517255
 H         2.433837        -2.050127        -0.298679
 H         1.766886        -0.983838        -1.634082
 H         4.220334         0.263979        -1.105418
 H         4.133224        -0.760319         1.484719
 H         4.575303         0.828084         0.905352
 H         2.476636         1.071917         3.182477
 H         1.468948         2.315867        -1.521995
