19
Iteration:   817charge 0 multiplicity 1
 C        -0.039786        -0.057960         0.375711
 C         1.455277        -0.196975         0.162938
 C         2.440199        -1.055002        -0.597682
 C         3.446104         0.074071        -0.522908
 C         3.790349         0.018254         1.062978
 C         2.299486         0.351737         1.271695
 O         1.611773         0.386344         2.527228
 C         2.248045         1.136696        -0.073723
 O         1.806959         2.406567        -0.639419
 H        -0.416057         1.004358         0.247598
 H        -0.480110        -0.576587        -0.513287
 H        -0.401452        -0.493603         1.337303
 H         2.639490        -1.962708         0.086972
 H         2.076612        -1.401187        -1.627286
 H         4.206593         0.425621        -1.281060
 H         4.286621        -0.931979         1.354445
 H         4.407514         0.873090         1.398933
 H         1.919638         1.143224         3.036095
 H         1.576933         2.939121         0.160793
