19
Iteration:  2579
 C        -0.108554        -0.467584         0.229838
 C         1.334315        -0.167980         0.200900
 C         2.248980        -0.923338        -0.736201
 C         3.286004         0.169231        -0.499643
 C         3.773166        -0.084663         0.941289
 C         2.414215         0.338322         1.275270
 O         1.930628         0.720200         2.551188
 C         2.155145         1.062737        -0.003207
 O         1.877136         2.437186        -0.286564
 H        -0.436426        -0.514135         1.247896
 H        -0.617637         0.249276        -0.420840
 H        -0.125502        -1.456714        -0.188338
 H         2.701725        -1.861680        -0.410173
 H         2.123783        -1.051712        -1.821640
 H         4.056712         0.123066        -1.229049
 H         4.173759        -1.047930         1.242987
 H         4.561482         0.761086         1.415344
 H         2.268217         1.640365         2.713053
 H         1.326238         2.492555        -1.103618
