19
Iteration:  3930
 C        -0.217570        -0.134355         0.222601
 C         1.324472        -0.049515        -0.043535
 C         2.200563        -0.530184        -1.125926
 C         3.274770         0.412458        -0.704042
 C         3.839111        -0.341107         0.669807
 C         2.518510         0.178513         1.309904
 O         2.104180         0.097058         2.556631
 C         2.211313         1.187273         0.193133
 O         1.756784         2.441354         0.375532
 H        -0.634535         0.230660         1.162665
 H        -0.655061         0.431609        -0.587719
 H        -0.563690        -1.167677        -0.107408
 H         2.473116        -1.565273        -0.984072
 H         1.634974        -0.390280        -2.047155
 H         4.033097         0.914196        -1.394494
 H         4.147192        -1.412153         0.536271
 H         4.632019         0.148377         1.080418
 H         1.290304        -0.390843         2.653097
 H         2.259698         2.871289         1.099202
