19
Iteration:  1588
 C        -0.041275        -0.595142         0.415942
 C         1.375980        -0.161380         0.183614
 C         2.281766        -0.975843        -0.708211
 C         3.391845         0.137920        -0.481052
 C         3.773482        -0.105844         1.045821
 C         2.404011         0.504639         1.306596
 O         1.797329         0.882468         2.509534
 C         2.140602         1.126966        -0.045672
 O         1.814204         2.373073        -0.613974
 H        -0.810316         0.162516         0.613435
 H        -0.413876        -1.165530        -0.481385
 H        -0.066585        -1.369977         1.220259
 H         2.655129        -2.000482        -0.583598
 H         1.933935        -0.891231        -1.742586
 H         4.070817         0.443836        -1.285039
 H         3.920321        -1.235958         1.429810
 H         4.525344         0.508743         1.571219
 H         2.227590         0.258577         3.116827
 H         2.445894         3.010962        -0.234614
