19
Iteration:   265
 C        -0.052038        -0.551301         0.488231
 C         1.347497        -0.182692         0.047836
 C         2.255267        -1.030315        -0.842968
 C         3.419335         0.054866        -0.570940
 C         3.687756        -0.195303         1.036884
 C         2.285485         0.400652         1.238559
 O         1.631079         1.019388         2.319198
 C         2.338079         1.109933        -0.022441
 O         2.143615         2.496969        -0.090540
 H        -0.641461         0.282439         0.879536
 H        -0.609778        -0.982979        -0.340387
 H         0.044783        -1.341254         1.212113
 H         2.467168        -2.078918        -0.573417
 H         1.980213        -1.056117        -1.945625
 H         4.226137         0.032209        -1.412992
 H         3.830836        -1.237297         1.384704
 H         4.466066         0.452885         1.579832
 H         0.830606         0.576202         2.616621
 H         1.840315         2.812631        -0.989618
