19
Iteration:  1720charge 0 multiplicity 1
 C        -0.093466        -0.318735         0.324647
 C         1.407407        -0.328153         0.327252
 C         2.380405        -1.016761        -0.708153
 C         3.410447         0.143865        -0.466028
 C         3.765507        -0.055036         0.970729
 C         2.345008         0.387048         1.258935
 O         2.040721         0.952687         2.527488
 C         2.163991         1.027142        -0.067924
 O         1.688334         2.239234        -0.555332
 H        -0.404472         0.544621         0.995677
 H        -0.574302        -0.111932        -0.639566
 H        -0.372042        -1.356351         0.713578
 H         2.523358        -2.083885        -0.470835
 H         1.863140        -0.856631        -1.680876
 H         4.096468         0.692671        -1.195673
 H         4.261229        -0.992419         1.239930
 H         4.266930         0.813030         1.279693
 H         1.244730         0.551462         2.963681
 H         1.087517         2.626350         0.127338
