19
Iteration:  1461
 C        -0.040466        -0.513926         0.288634
 C         1.391032        -0.175677         0.084380
 C         2.362797        -0.936972        -0.799047
 C         3.469189         0.150665        -0.441044
 C         3.664820        -0.066507         1.079638
 C         2.277512         0.409268         1.343679
 O         1.885345         0.872698         2.649391
 C         2.183679         1.118936         0.007257
 O         1.781201         2.308156        -0.561007
 H        -0.542875        -0.040415         1.215727
 H        -0.721441        -0.340469        -0.595528
 H        -0.116311        -1.621068         0.485632
 H         2.338371        -2.002509        -0.574082
 H         1.999211        -0.698069        -1.831821
 H         4.294432         0.540670        -1.192811
 H         3.939861        -1.080331         1.465556
 H         4.280151         0.771305         1.641684
 H         2.500926         0.464863         3.331043
 H         1.855345         2.263900        -1.552256
