19
Iteration:  1324
 C        -0.055046        -0.474082         0.117814
 C         1.412234        -0.252347         0.161831
 C         2.363021        -0.906566        -0.850266
 C         3.371146         0.110385        -0.375629
 C         3.762221        -0.137838         1.075440
 C         2.416402         0.512357         1.393825
 O         1.882808         0.929311         2.641754
 C         2.173813         1.077673        -0.004328
 O         1.731767         2.247821        -0.518548
 H        -0.683996         0.399004         0.275225
 H        -0.115990        -0.756210        -0.938445
 H        -0.353025        -1.267032         0.843518
 H         2.805510        -2.016204        -0.739288
 H         1.820167        -0.487629        -1.741711
 H         4.259200         0.415886        -1.015965
 H         3.736560        -1.200088         1.394583
 H         4.593759         0.426133         1.404874
 H         1.001045         0.572608         2.700736
 H         1.978028         2.900224         0.190840
