19
Iteration:    48
 C        -0.092581        -0.677279         0.293745
 C         1.303757        -0.145821         0.136723
 C         2.300886        -1.030358        -0.745445
 C         3.295423         0.109047        -0.519800
 C         3.607735        -0.017815         1.040106
 C         2.182824         0.341947         1.278751
 O         1.826162         0.905629         2.427299
 C         2.192011         1.096861        -0.101885
 O         2.360666         2.500927        -0.244189
 H        -0.980249        -0.112522         0.702028
 H        -0.433035        -1.190020        -0.647893
 H         0.218916        -1.424390         1.087509
 H         2.547616        -2.007356        -0.513922
 H         1.853190        -0.817889        -1.749793
 H         4.172408         0.324417        -1.128973
 H         3.845330        -1.058766         1.433177
 H         4.172084         0.878492         1.439361
 H         0.830690         0.804599         2.599292
 H         1.520697         2.963174        -0.170846
