19
Iteration:  2518charge 0 multiplicity 1
 C         0.061297        -0.535397         0.703870
 C         1.329142        -0.152419         0.050832
 C         2.234533        -0.932238        -0.865694
 C         3.384115         0.167820        -0.479059
 C         3.739068        -0.080709         0.992388
 C         2.285420         0.382419         1.211096
 O         1.625673         0.674307         2.399586
 C         2.317820         1.143567        -0.102217
 O         2.009665         2.451475        -0.315987
 H         0.071902        -1.699690         0.889535
 H        -0.025465        -0.111798         1.716131
 H        -0.981019        -0.452916         0.224569
 H         2.613527        -1.982553        -0.740321
 H         2.218589        -0.654349        -1.933849
 H         4.192558         0.398329        -1.249125
 H         4.061994        -1.130741         1.316586
 H         4.325058         0.589018         1.433525
 H         1.797284         1.625463         2.623040
 H         1.538231         2.464814        -1.188004
