19
Iteration:  1164
 C        -0.072431        -0.569224         0.154481
 C         1.353043        -0.166337         0.125997
 C         2.359507        -0.846281        -0.799077
 C         3.468593         0.095171        -0.406801
 C         3.716232        -0.114186         1.125344
 C         2.267259         0.327006         1.357125
 O         1.822207         0.993572         2.474851
 C         2.217529         1.068968        -0.003615
 O         1.856894         2.290258        -0.398074
 H        -0.696565        -0.001264         0.852382
 H        -0.527411        -0.537231        -0.820564
 H        -0.070803        -1.606793         0.528952
 H         2.437875        -1.958497        -0.689466
 H         2.143897        -0.542201        -1.835824
 H         4.403996         0.333899        -1.017812
 H         4.036310        -1.098677         1.475894
 H         4.546674         0.601714         1.454787
 H         0.969968         0.665999         2.743275
 H         2.370516         3.038395         0.005441
