19
Iteration:  3085
 C        -0.038309        -0.315076         0.474115
 C         1.464114        -0.143049         0.172478
 C         2.172841        -0.774738        -0.959806
 C         3.275432         0.335928        -0.540595
 C         3.808903        -0.164393         0.861810
 C         2.466399         0.358101         1.325132
 O         1.861986         0.239408         2.635282
 C         2.211923         1.198771         0.038525
 O         1.754392         2.435767        -0.385650
 H        -0.339272         0.071764         1.544509
 H        -0.833084         0.096329        -0.174405
 H        -0.199901        -1.384658         0.518734
 H         2.401708        -1.859904        -0.817788
 H         1.754359        -0.524305        -1.951012
 H         4.047308         0.643967        -1.233793
 H         4.188498        -1.229224         1.073964
 H         4.716081         0.476354         1.156932
 H         1.965049         1.093228         3.100037
 H         2.294822         2.826842        -1.097607
