19
Iteration:  1166
 C        -0.063340        -0.583790         0.163894
 C         1.365862        -0.169674         0.132025
 C         2.358834        -0.850556        -0.811392
 C         3.472686         0.105859        -0.413202
 C         3.683644        -0.129304         1.139356
 C         2.268810         0.325620         1.359384
 O         1.831325         0.996590         2.481255
 C         2.224885         1.070801         0.014252
 O         1.859613         2.305947        -0.416985
 H        -0.726291        -0.022649         0.835549
 H        -0.509395        -0.510729        -0.818391
 H        -0.038159        -1.609806         0.459081
 H         2.504628        -2.039597        -0.782670
 H         2.092935        -0.506330        -1.794727
 H         4.323100         0.296861        -1.034708
 H         4.015911        -1.070710         1.463117
 H         4.476077         0.574700         1.394981
 H         0.937530         0.770981         2.769313
 H         2.330557         3.027422         0.036304
