19
Iteration:  4642
 C        -0.206618         0.206318         0.060006
 C         1.325331         0.034596         0.049796
 C         2.085563        -0.155132        -1.297456
 C         3.265070         0.601402        -0.616925
 C         3.739746        -0.309104         0.405008
 C         2.501075        -0.223562         1.233536
 O         2.200836        -0.514949         2.557918
 C         2.257952         1.186019         0.405448
 O         1.759808         2.488609         0.699589
 H        -0.477416         1.194676         0.487512
 H        -0.475785         0.149708        -1.043490
 H        -0.803899        -0.653784         0.480555
 H         2.421127        -1.252887        -1.619467
 H         1.619067         0.399065        -2.128878
 H         3.895152         1.318370        -1.239823
 H         4.035688        -1.371522         0.070994
 H         4.555395         0.069411         1.021598
 H         1.863133        -1.404032         2.511269
 H         2.583644         2.827778         1.072884
