19
Iteration:  4611
 C        -0.171817        -0.032942         0.173127
 C         1.360472         0.126915        -0.000776
 C         2.073218        -0.118552        -1.335660
 C         3.279479         0.516944        -0.631104
 C         3.720398        -0.372508         0.504328
 C         2.445701        -0.104167         1.134115
 O         2.164000        -0.473016         2.479595
 C         2.238491         1.226649         0.383921
 O         1.858545         2.540563         0.738206
 H        -0.606994         0.148260         1.181361
 H        -0.745927         0.625449        -0.510736
 H        -0.450028        -1.046164        -0.190022
 H         2.200324        -1.153175        -1.766741
 H         1.703871         0.645085        -2.070541
 H         3.967865         1.161361        -1.236140
 H         3.952381        -1.465492         0.255223
 H         4.490900         0.068327         1.091014
 H         1.282187        -0.936201         2.540314
 H         2.703208         2.909163         1.086254
