19
Iteration:  4321charge 0 multiplicity 1
 C        -0.083750        -0.207505         0.228370
 C         1.357172        -0.047132         0.027186
 C         2.083413        -0.287176        -1.304847
 C         3.304271         0.408036        -0.678886
 C         3.782988        -0.372554         0.525606
 C         2.439486         0.073797         1.154586
 O         2.045384        -0.125210         2.467051
 C         2.204203         1.198719         0.312742
 O         1.858617         2.520111         0.671925
 H        -0.343209        -1.123502         0.771367
 H        -0.454489         0.698014         0.745616
 H        -0.595478        -0.106508        -0.769878
 H         2.232545        -1.270102        -1.738947
 H         1.440548         0.308291        -1.936396
 H         4.144460         0.980712        -1.121285
 H         3.941538        -1.436997         0.370309
 H         4.571978         0.269582         1.073300
 H         1.174152         0.244307         2.589128
 H         2.577267         2.870506         1.209411
