19
Iteration:  3203charge 0 multiplicity 1
 C        -0.042519        -0.303416         0.536065
 C         1.362027        -0.187889         0.086017
 C         2.269886        -0.833399        -1.073720
 C         3.326175         0.213780        -0.644559
 C         3.751445        -0.149986         0.835087
 C         2.371301         0.290120         1.187966
 O         1.973337         0.550714         2.480388
 C         2.217866         1.095367         0.009569
 O         1.821643         2.409044         0.119081
 H        -0.838808         0.279184        -0.003250
 H        -0.474718        -1.378387         0.525814
 H        -0.149810        -0.186267         1.615869
 H         2.341807        -1.967652        -1.022824
 H         1.954105        -0.612662        -2.114632
 H         4.004735         0.566790        -1.399797
 H         4.022068        -1.162858         1.214280
 H         4.566220         0.480040         1.201021
 H         1.282054         1.220481         2.468623
 H         1.705534         2.874918        -0.732333
