19
Iteration:   967
 C        -0.144021        -0.388406         0.294052
 C         1.314737        -0.238204         0.124864
 C         2.353789        -1.053677        -0.671475
 C         3.403718         0.116195        -0.544197
 C         3.860415         0.018541         1.018480
 C         2.350300         0.301167         1.271230
 O         1.576869         0.903685         2.204034
 C         2.200501         0.967658        -0.053495
 O         2.091559         2.359152         0.005985
 H        -0.445856        -0.196707         1.321567
 H        -0.679909         0.163457        -0.456545
 H        -0.346318        -1.434402         0.035374
 H         2.735973        -1.983246        -0.128264
 H         2.071870        -1.336525        -1.677402
 H         4.182185         0.468720        -1.432128
 H         4.240062        -0.981466         1.175736
 H         4.608627         0.827720         1.287433
 H         1.821615         1.863782         2.221626
 H         1.241630         2.693345        -0.406942
