19
Iteration:  2066
 C        -0.082476        -0.498564         0.324184
 C         1.368674        -0.247910         0.181763
 C         2.236022        -1.089718        -0.598802
 C         3.374677         0.016522        -0.650135
 C         3.834555        -0.028225         0.934140
 C         2.379817         0.407360         1.256940
 O         1.971802         1.091686         2.412801
 C         2.168706         0.995556        -0.096400
 O         1.764047         2.345309        -0.103335
 H        -0.651678         0.291140         0.886895
 H        -0.511475        -0.631377        -0.700487
 H        -0.114302        -1.445160         0.813801
 H         2.515113        -2.098434        -0.241296
 H         1.905560        -1.013502        -1.640984
 H         4.308997        -0.075151        -1.351201
 H         4.443131        -0.853377         1.309023
 H         4.418947         0.831784         1.217769
 H         1.459838         1.878130         2.066049
 H         1.294128         2.441058        -0.951794
