19
Iteration:  4543charge 0 multiplicity 1
 C        -0.106156        -0.366895         0.282984
 C         1.265507         0.108066        -0.033950
 C         2.106175        -0.125053        -1.417534
 C         3.247463         0.522463        -0.734681
 C         3.733354        -0.332079         0.492546
 C         2.343836        -0.053114         1.119607
 O         1.904470        -0.190240         2.471415
 C         2.310126         1.231161         0.347242
 O         2.152858         2.546131         0.828412
 H         0.001376        -1.464683         0.293066
 H        -0.583150        -0.030519         1.260168
 H        -0.760553        -0.022163        -0.558298
 H         2.000547        -1.220558        -1.717695
 H         1.844532         0.575490        -2.222090
 H         3.966212         1.186208        -1.319386
 H         4.161693        -1.331424         0.138012
 H         4.529169         0.226438         1.054351
 H         1.281182        -0.913396         2.426293
 H         2.048487         2.446073         1.769974
