19
Iteration:  3331
 C        -0.032588        -0.140954         0.502667
 C         1.428568        -0.169487         0.099688
 C         2.320269        -0.837818        -1.073358
 C         3.395038         0.211618        -0.708165
 C         3.806679        -0.195255         0.799454
 C         2.448041         0.225834         1.277460
 O         1.796965         0.535574         2.480118
 C         2.263557         1.103688         0.084446
 O         1.599418         2.389737         0.034182
 H        -0.579999        -0.788142        -0.132657
 H        -0.256419        -0.452198         1.568522
 H        -0.479365         0.851794         0.203317
 H         2.651492        -1.895959        -0.863614
 H         1.768376        -0.830039        -2.043575
 H         4.143748         0.622816        -1.377132
 H         4.018207        -1.209612         0.793793
 H         4.549480         0.648228         1.134345
 H         2.100649        -0.150359         3.139360
 H         2.374836         2.993380         0.136979
