19
Iteration:  3667charge 0 multiplicity 1
 C        -0.131814        -0.342475         0.253907
 C         1.338428        -0.097723         0.081051
 C         2.122918        -0.593010        -1.066766
 C         3.273925         0.361064        -0.630684
 C         3.783950        -0.191715         0.822567
 C         2.397685         0.176512         1.270616
 O         2.037093         0.228350         2.613271
 C         2.198937         1.178209         0.175937
 O         1.958711         2.557395         0.069698
 H        -0.290972        -1.456112         0.479745
 H        -0.675613         0.224649         0.982066
 H        -0.550663        -0.054122        -0.792755
 H         2.524309        -1.646645        -1.048865
 H         1.645247        -0.341067        -2.047355
 H         3.964996         0.806652        -1.332031
 H         4.060689        -1.298677         0.844404
 H         4.597684         0.345644         1.177369
 H         2.066590        -0.692799         2.971935
 H         1.126140         2.623545        -0.452089
