19
Iteration:  2342
 C        -0.030199        -0.534053         0.574629
 C         1.372148        -0.143600         0.153763
 C         2.312425        -1.099724        -0.669133
 C         3.285659         0.168573        -0.514449
 C         3.682544         0.044284         0.970743
 C         2.248487         0.392242         1.308470
 O         1.897895         0.756317         2.563067
 C         2.206420         1.119869        -0.139111
 O         2.008314         2.447533        -0.569453
 H        -0.339143        -0.152602         1.519069
 H        -0.874722        -0.258578        -0.009592
 H        -0.111522        -1.633251         0.640772
 H         2.789351        -2.065251        -0.397200
 H         2.093569        -1.166828        -1.721443
 H         3.917259         0.368574        -1.352611
 H         4.011958        -1.042494         1.414971
 H         4.382052         0.819080         1.289860
 H         0.948553         1.060558         2.609434
 H         1.959603         2.418804        -1.542583
