19
Iteration:  3145
 C        -0.095536        -0.368425         0.286978
 C         1.345220        -0.190426         0.148634
 C         2.215523        -0.842802        -0.910117
 C         3.337507         0.243280        -0.642104
 C         3.782130        -0.154544         0.787504
 C         2.427182         0.321925         1.279369
 O         1.982645         0.562317         2.549149
 C         2.124926         1.126959         0.044568
 O         1.835299         2.437311        -0.079698
 H        -0.677945         0.508381         0.394271
 H        -0.468481        -0.982691        -0.576899
 H        -0.238050        -0.896295         1.269156
 H         2.370034        -1.884570        -0.662000
 H         1.736338        -0.649371        -1.878043
 H         4.070204         0.295428        -1.472874
 H         4.004309        -1.183541         1.081761
 H         4.584177         0.679535         1.109144
 H         2.746739         0.702241         3.159943
 H         1.342094         2.755857         0.696143
