19
Iteration:  2936
 C        -0.007399        -0.447471         0.488026
 C         1.386280        -0.148007         0.078442
 C         2.322923        -0.917198        -0.895028
 C         3.364712         0.249813        -0.605760
 C         3.752181        -0.167883         0.904216
 C         2.345297         0.291595         1.208772
 O         1.808829         0.649685         2.471089
 C         2.137186         1.136552        -0.015332
 O         1.786426         2.451220        -0.153878
 H        -0.534787        -0.692944        -0.453432
 H        -0.134667        -1.309376         1.180219
 H        -0.632409         0.387775         0.986404
 H         2.576882        -1.999093        -0.737551
 H         1.884555        -0.549833        -1.845773
 H         4.204186         0.470458        -1.299767
 H         4.048204        -1.203185         1.140037
 H         4.574679         0.448700         1.250651
 H         2.622557         0.855866         2.935490
 H         2.438082         2.980148         0.372988
