19
Iteration:  2755
 C        -0.093035        -0.608976         0.511904
 C         1.338066        -0.202884         0.075315
 C         2.288494        -0.882706        -0.858156
 C         3.382569         0.141706        -0.569068
 C         3.760883        -0.025854         0.895926
 C         2.304341         0.326801         1.208124
 O         1.739950         0.752079         2.463230
 C         2.196455         1.112767        -0.060975
 O         1.993986         2.455789        -0.216482
 H        -0.271142        -1.734510         0.779711
 H        -0.353327         0.059935         1.444347
 H        -0.802058        -0.235721        -0.258771
 H         2.517491        -1.972503        -0.725853
 H         1.970502        -0.697522        -1.913791
 H         4.209117         0.324977        -1.297963
 H         3.992334        -0.948923         1.244936
 H         4.525833         0.753549         1.294851
 H         2.602214         0.980529         2.893761
 H         1.925533         2.787970         0.713055
