19
Iteration:  4391charge 0 multiplicity 1
 C        -0.204272        -0.128568         0.359684
 C         1.354803         0.028544         0.135581
 C         2.086813        -0.204361        -1.270429
 C         3.408364         0.556768        -0.602084
 C         3.767943        -0.319719         0.552695
 C         2.417273         0.032691         1.226666
 O         2.043565        -0.526325         2.472363
 C         2.276703         1.300963         0.265803
 O         1.866620         2.600846         0.350694
 H        -0.507880         0.532189         1.174648
 H        -0.741659         0.021649        -0.590340
 H        -0.399832        -1.193193         0.695053
 H         2.253970        -1.251331        -1.631726
 H         1.650949         0.397536        -2.119547
 H         4.138978         1.050772        -1.259732
 H         3.954687        -1.401217         0.358295
 H         4.512586         0.220661         1.053663
 H         1.178328        -0.867488         2.657210
 H         2.314547         3.050601         1.065732
