19
Iteration:  3628
 C         0.010144        -0.408051         0.525843
 C         1.340706        -0.046568         0.090154
 C         2.246839        -0.548374        -1.124146
 C         3.352543         0.308712        -0.684632
 C         3.710579        -0.281171         0.713039
 C         2.351458         0.167254         1.246130
 O         1.859040         0.290228         2.530233
 C         2.283539         1.216166         0.184805
 O         1.877941         2.556414         0.078868
 H        -0.563263        -0.920677        -0.158119
 H         0.150043        -0.933305         1.508343
 H        -0.626283         0.411798         0.678412
 H         2.529453        -1.588171        -1.019169
 H         1.983969        -0.371463        -2.158361
 H         4.197608         0.672721        -1.274390
 H         3.904022        -1.323797         0.781168
 H         4.562709         0.371355         1.216779
 H         1.170730        -0.363135         2.690371
 H         1.552639         2.576870        -0.841127
