19
Iteration:    58charge 0 multiplicity 1
 C        -0.149176        -0.714873         0.412546
 C         1.264087        -0.115179         0.039523
 C         2.326734        -1.034736        -0.828290
 C         3.372123         0.081509        -0.443109
 C         3.580682        -0.108492         1.065556
 C         2.175680         0.328990         1.189487
 O         1.839574         0.952113         2.476911
 C         2.191600         1.144401        -0.199579
 O         2.349422         2.564655        -0.186893
 H        -1.062555        -0.204923         0.791602
 H        -0.381315        -1.285633        -0.509826
 H         0.060064        -1.550419         1.121714
 H         2.564432        -1.962608        -0.397946
 H         2.234659        -1.200345        -1.959704
 H         4.067416         0.452798        -1.149970
 H         3.932716        -0.981159         1.649638
 H         4.248158         0.738204         1.352279
 H         0.861540         0.691095         2.637111
 H         1.525632         3.044873        -0.441441
