19
Iteration:  2184
 C        -0.146675        -0.349908         0.471880
 C         1.371162        -0.212954         0.208709
 C         2.335446        -1.039248        -0.629050
 C         3.317384         0.198194        -0.530502
 C         3.734315         0.098619         0.986311
 C         2.308059         0.358999         1.243699
 O         1.954287         0.592539         2.704765
 C         2.089067         1.127556        -0.075086
 O         1.938287         2.356633        -0.721312
 H        -0.541625         0.645401         0.751882
 H        -0.543319        -0.706920        -0.493341
 H        -0.275061        -1.108634         1.232874
 H         2.632080        -1.915834        -0.033440
 H         1.939236        -1.292861        -1.649300
 H         4.110934         0.552194        -1.199625
 H         4.166822        -0.838080         1.540337
 H         4.532276         0.752299         1.191617
 H         2.503582         1.390980         2.773547
 H         1.287425         2.127667        -1.395902
