19
Iteration:   346
 C        -0.080911        -0.276743         0.239806
 C         1.374063        -0.144750         0.042147
 C         2.317293        -1.022933        -0.809462
 C         3.428881         0.134590        -0.365459
 C         3.676035        -0.142665         1.153882
 C         2.330863         0.481112         1.341637
 O         1.795394         0.727452         2.580246
 C         2.255237         1.090496        -0.018494
 O         1.945106         2.333620        -0.591793
 H        -0.564231         0.694150         0.217920
 H        -0.496961        -0.838216        -0.607503
 H        -0.349275        -0.724540         1.208761
 H         2.460862        -2.110906        -0.523030
 H         1.921013        -0.949727        -1.923933
 H         4.268189         0.573570        -0.846647
 H         3.728524        -1.178879         1.461674
 H         4.550181         0.375029         1.557354
 H         1.741077        -0.081551         3.066158
 H         1.478994         2.811639         0.123655
