19
Iteration:  4146
 C        -0.040034        -0.161688         0.354563
 C         1.380677        -0.062941         0.101907
 C         2.120859        -0.333581        -1.219244
 C         3.335014         0.453327        -0.629534
 C         3.760759        -0.353418         0.573984
 C         2.439512         0.010199         1.174010
 O         1.933890        -0.028456         2.485807
 C         2.261714         1.238966         0.218124
 O         1.775273         2.490252         0.384345
 H        -0.255905        -0.133385         1.435006
 H        -0.614301         0.559368        -0.242234
 H        -0.319744        -1.153785        -0.057311
 H         2.391877        -1.376136        -1.569506
 H         1.596802         0.153997        -2.075975
 H         4.156185         1.030828        -1.174142
 H         4.099841        -1.353170         0.481347
 H         4.571600         0.221375         1.154074
 H         1.633791        -0.842785         2.931336
 H         2.487598         2.972066         0.894483
