19
Iteration:  2543
 C         0.011330        -0.582888         0.570557
 C         1.399243        -0.198005         0.160445
 C         2.281452        -0.890652        -0.934974
 C         3.339154         0.134130        -0.531296
 C         3.699711        -0.137507         1.006627
 C         2.345935         0.448357         1.300739
 O         1.750185         0.672573         2.521422
 C         2.140298         1.181572        -0.083682
 O         2.004872         2.486738        -0.367003
 H        -0.027193        -1.332680         1.392346
 H        -0.650441         0.215219         1.012043
 H        -0.624459        -1.089386        -0.246927
 H         2.554215        -1.971052        -0.711777
 H         2.093244        -0.691011        -1.991185
 H         4.222076         0.233946        -1.177323
 H         3.872618        -1.185346         1.288031
 H         4.556738         0.547201         1.354908
 H         1.685943         1.646182         2.649744
 H         1.829576         2.593531        -1.330198
