19
Iteration:  1587
 C        -0.030831        -0.585090         0.418739
 C         1.373418        -0.160607         0.172652
 C         2.283925        -0.988316        -0.707057
 C         3.391985         0.143543        -0.489709
 C         3.780647        -0.114138         1.040167
 C         2.401124         0.506371         1.303642
 O         1.789519         0.890683         2.511094
 C         2.142728         1.124757        -0.036950
 O         1.805588         2.372421        -0.604213
 H        -0.796718         0.173528         0.600765
 H        -0.451086        -1.159136        -0.484333
 H        -0.056440        -1.395461         1.210593
 H         2.655309        -2.013626        -0.573714
 H         1.931101        -0.903018        -1.726354
 H         4.087389         0.417818        -1.229425
 H         3.941050        -1.227410         1.405239
 H         4.532903         0.516202         1.604803
 H         2.233328         0.238757         3.103273
 H         2.474511         3.010873        -0.280865
