19
Iteration:  2105
 C        -0.000719        -0.387982         0.654677
 C         1.412812        -0.307026         0.154684
 C         2.423344        -1.057742        -0.821767
 C         3.455978         0.116067        -0.598191
 C         3.761437        -0.094927         0.973776
 C         2.369223         0.426160         1.228764
 O         1.756628         0.983052         2.399556
 C         2.098512         1.033630        -0.159198
 O         1.814260         2.306844        -0.235869
 H        -0.401204         0.610047         0.761698
 H        -0.659294        -0.935548        -0.023570
 H        -0.057781        -0.831734         1.713153
 H         2.643026        -2.135028        -0.697433
 H         1.996187        -1.029664        -1.858144
 H         4.055562         0.063335        -1.455427
 H         3.843404        -1.198212         1.320929
 H         4.440523         0.575310         1.555052
 H         1.783314         1.948089         2.368700
 H         1.175842         2.530075        -0.929050
