19
Iteration:  3469
 C         0.042260        -0.253357         0.554431
 C         1.417702        -0.129170         0.071085
 C         2.285173        -0.741998        -1.077227
 C         3.375761         0.309286        -0.576719
 C         3.777392        -0.185938         0.776722
 C         2.374790         0.215731         1.321211
 O         1.825443         0.341994         2.536176
 C         2.154480         1.208711         0.069089
 O         1.861212         2.508425        -0.096096
 H        -0.036624        -1.033274         1.375084
 H        -0.344297         0.689680         0.861804
 H        -0.633332        -0.756473        -0.177968
 H         2.428872        -1.820757        -1.058863
 H         1.801217        -0.536856        -2.032190
 H         4.098521         0.694172        -1.334129
 H         3.916844        -1.342806         0.756163
 H         4.571057         0.357559         1.157158
 H         1.352056        -0.469577         2.774428
 H         0.936213         2.508297        -0.447710
