19
Iteration:  2812charge 0 multiplicity 1
 C        -0.098556        -0.189823         0.234886
 C         1.465638        -0.105555         0.240625
 C         2.319795        -0.968448        -0.874327
 C         3.387685         0.142372        -0.620715
 C         3.865478        -0.185730         0.851199
 C         2.470289         0.330196         1.321191
 O         1.829206         0.607781         2.617139
 C         2.282300         1.115939        -0.004420
 O         1.536989         2.299974        -0.209704
 H        -0.619903        -0.163212         1.265713
 H        -0.641786         0.609969        -0.276193
 H        -0.422441        -1.189424        -0.200758
 H         2.729606        -1.978443        -0.692996
 H         1.691085        -0.923025        -1.803804
 H         4.281424         0.432660        -1.198797
 H         4.134531        -1.139957         1.053489
 H         4.659829         0.612939         1.122306
 H         2.086923         1.516874         2.815046
 H         2.119409         2.989391         0.190614
