19
Iteration:  1437
 C        -0.031902        -0.473668         0.442471
 C         1.455930        -0.285046         0.189329
 C         2.383478        -0.927650        -0.883493
 C         3.352007         0.155586        -0.441125
 C         3.741424        -0.036628         1.054359
 C         2.345948         0.456706         1.317749
 O         1.665750         0.787006         2.535822
 C         2.201779         1.101774        -0.009984
 O         1.929470         2.322140        -0.573066
 H        -0.448252         0.296949         1.142853
 H        -0.568498        -0.452589        -0.500322
 H        -0.301474        -1.399602         0.961001
 H         2.690366        -1.973055        -0.752090
 H         2.006290        -0.648863        -1.883058
 H         4.183773         0.573785        -1.057231
 H         3.927110        -1.007124         1.443366
 H         4.478993         0.740861         1.289029
 H         2.339696         0.733145         3.242662
 H         0.982404         2.469612        -0.759754
