19
Iteration:  4662charge 0 multiplicity 1
 C        -0.165524         0.257696         0.138280
 C         1.321394         0.017676        -0.118314
 C         2.137015        -0.145382        -1.369766
 C         3.251466         0.633271        -0.621102
 C         3.857122        -0.420365         0.436206
 C         2.384394        -0.112536         1.154099
 O         2.168928        -0.490502         2.558698
 C         2.232694         1.199073         0.502894
 O         1.747823         2.414458         0.690197
 H        -0.360046         1.331116         0.249859
 H        -0.893421        -0.299448        -0.498265
 H        -0.452933        -0.247103         1.078796
 H         2.388103        -1.225505        -1.427332
 H         1.653923         0.310660        -2.212119
 H         3.984739         1.271675        -1.239249
 H         4.098083        -1.400241        -0.023329
 H         4.716738        -0.040093         1.058150
 H         2.111579        -1.479630         2.592555
 H         2.064997         2.785045         1.566354
