19
Iteration:  4562charge 0 multiplicity 1
 C        -0.061502        -0.367078         0.331259
 C         1.334705         0.008946        -0.014161
 C         2.001714        -0.086151        -1.368433
 C         3.346099         0.623765        -0.643146
 C         3.743946        -0.452191         0.494595
 C         2.416651         0.023203         1.065429
 O         1.890360        -0.263280         2.340158
 C         2.213245         1.263266         0.348230
 O         2.120944         2.592901         0.799566
 H        -0.200733        -1.194093         1.056188
 H        -0.509520         0.505726         0.925891
 H        -0.725268        -0.500696        -0.564098
 H         2.421144        -1.087921        -1.800447
 H         1.436005         0.516837        -2.087470
 H         4.146406         0.916371        -1.260998
 H         3.806590        -1.519783         0.321629
 H         4.676597        -0.021240         1.030693
 H         1.000207        -0.587623         2.401888
 H         2.041908         2.492813         1.764997
