19
Iteration:  4590
 C        -0.117185        -0.230524         0.302808
 C         1.282881         0.181086        -0.078051
 C         2.117930        -0.127959        -1.368310
 C         3.344107         0.659937        -0.665481
 C         3.730883        -0.438531         0.404729
 C         2.367874        -0.089555         1.152133
 O         1.995898        -0.404237         2.490963
 C         2.289880         1.237535         0.419879
 O         1.968974         2.554671         0.710553
 H        -0.061902        -0.432922         1.377219
 H        -0.790895         0.623891         0.251192
 H        -0.582514        -0.978795        -0.323399
 H         2.432551        -1.095808        -1.669523
 H         1.635177         0.393069        -2.233483
 H         4.088957         1.189027        -1.311979
 H         3.870932        -1.517884         0.136137
 H         4.562017        -0.125938         0.983426
 H         1.035389        -0.550056         2.548999
 H         2.384331         2.736313         1.597770
