19
Iteration:  2269charge 0 multiplicity 1
 C        -0.105215        -0.401002         0.448292
 C         1.403880        -0.313392         0.136247
 C         2.417108        -1.078890        -0.726115
 C         3.363681         0.080032        -0.522744
 C         3.745807        -0.099824         1.032467
 C         2.386997         0.448785         1.247952
 O         1.903652         1.055493         2.407664
 C         2.194503         0.995466        -0.125971
 O         1.765088         2.313433        -0.240141
 H        -0.385199        -0.322966         1.532425
 H        -0.861313         0.229670        -0.049638
 H        -0.460663        -1.469909         0.170565
 H         2.645369        -2.114256        -0.412952
 H         2.121076        -1.142667        -1.805620
 H         4.127114         0.489829        -1.184650
 H         3.918204        -1.095123         1.196188
 H         4.548644         0.668788         1.459827
 H         1.890009         1.986471         2.056867
 H         1.079470         2.268304        -0.951758
