19
Iteration:  4898
 C        -0.150724         0.029297         0.163721
 C         1.284877         0.150165        -0.083244
 C         2.082763        -0.028317        -1.349254
 C         3.192062         0.672598        -0.648394
 C         3.736191        -0.346257         0.362854
 C         2.373764        -0.158541         1.140280
 O         2.138607        -0.661260         2.475957
 C         2.276177         1.162326         0.495962
 O         1.978032         2.543838         0.943813
 H        -0.640084         1.017177         0.455646
 H        -0.578389        -0.373012        -0.765679
 H        -0.424032        -0.680317         0.970131
 H         2.229197        -1.142476        -1.724903
 H         1.763841         0.683692        -2.075924
 H         3.990656         1.340149        -1.123051
 H         4.120347        -1.294057        -0.147358
 H         4.675925         0.065179         0.919837
 H         1.615218        -1.471197         2.350855
 H         2.048844         2.900423         0.054608
