19
Iteration:  1231
 C        -0.050318        -0.461239         0.355402
 C         1.439567        -0.171822         0.043999
 C         2.332354        -0.989435        -0.746866
 C         3.445339         0.176572        -0.421246
 C         3.778952         0.053371         1.118165
 C         2.234024         0.334854         1.344253
 O         1.630663         0.630107         2.491773
 C         2.207439         1.084552        -0.018183
 O         2.034772         2.396184        -0.543761
 H        -0.313465        -0.201736         1.401504
 H        -0.705785         0.094496        -0.303805
 H        -0.283216        -1.497590         0.248496
 H         2.506770        -1.938328        -0.357209
 H         2.006524        -1.013764        -1.769606
 H         4.137555         0.348288        -1.183261
 H         4.238529        -0.789957         1.579061
 H         4.376795         0.968171         1.345892
 H         1.798017         1.627085         2.559981
 H         1.144661         2.625302        -0.234640
