19
Iteration:  2829
 C        -0.028526        -0.161035         0.224775
 C         1.431610        -0.189027         0.221489
 C         2.253893        -0.843857        -0.809790
 C         3.382688         0.161032        -0.528205
 C         3.823405        -0.090873         0.914962
 C         2.415122         0.318371         1.331582
 O         1.997053         0.457163         2.587123
 C         2.211161         1.138703         0.074477
 O         1.544693         2.287315        -0.345426
 H        -0.530416         0.244069         1.082107
 H        -0.329589         0.462094        -0.687638
 H        -0.523659        -1.169653         0.150586
 H         2.368785        -1.942564        -0.750236
 H         1.893424        -0.764698        -1.838902
 H         3.987407         0.360969        -1.417442
 H         4.197787        -1.225230         1.159772
 H         4.562901         0.551258         1.385099
 H         1.968934         1.398038         2.810046
 H         2.058797         3.129205        -0.334601
