19
Iteration:  2531
 C         0.049079        -0.574196         0.694627
 C         1.360148        -0.142957         0.075298
 C         2.293997        -0.850343        -0.919704
 C         3.413804         0.112171        -0.488535
 C         3.696801        -0.108749         1.059710
 C         2.322494         0.397207         1.201867
 O         1.709060         0.654059         2.396123
 C         2.116550         1.104530        -0.014224
 O         2.024325         2.486448        -0.367291
 H         0.261079        -1.556435         1.186642
 H        -0.254599         0.220905         1.422513
 H        -0.726538        -0.622434        -0.174291
 H         2.360435        -1.966765        -0.714725
 H         1.734771        -0.788809        -1.853815
 H         4.191339         0.560908        -1.152764
 H         3.923807        -1.124028         1.453843
 H         4.489990         0.575631         1.379775
 H         1.707964         1.599729         2.535650
 H         1.742084         2.573052        -1.287058
