19
Iteration:  4895
 C        -0.149988         0.054241         0.166652
 C         1.304242         0.120433        -0.081872
 C         2.084106        -0.041705        -1.358474
 C         3.198264         0.698925        -0.619662
 C         3.740776        -0.338840         0.362858
 C         2.390839        -0.138981         1.130543
 O         2.142655        -0.655316         2.459572
 C         2.283852         1.167564         0.497822
 O         1.951102         2.508966         0.939686
 H        -0.552871         1.022153         0.517932
 H        -0.700597        -0.209834        -0.766275
 H        -0.431472        -0.670428         0.940518
 H         2.167668        -1.083211        -1.580289
 H         1.736465         0.647026        -2.091169
 H         3.994446         1.256615        -1.061674
 H         3.969767        -1.346919        -0.097132
 H         4.574586         0.100308         0.823732
 H         1.601114        -1.496934         2.356671
 H         2.126661         2.804961         0.007448
