19
Iteration:  4829charge 0 multiplicity 1
 C        -0.107702         0.061443         0.310334
 C         1.371412         0.116436        -0.078299
 C         2.083035        -0.052867        -1.444696
 C         3.310438         0.657013        -0.652380
 C         3.773916        -0.436697         0.429536
 C         2.432211        -0.096949         1.071449
 O         1.999549        -0.417852         2.411979
 C         2.315247         1.215870         0.384297
 O         1.897761         2.349460         0.970121
 H        -0.226827        -0.517701         1.231932
 H        -0.665753         1.032401         0.347916
 H        -0.652080        -0.568234        -0.413740
 H         2.097337        -1.155706        -1.738840
 H         1.795231         0.667913        -2.233769
 H         3.931687         1.200664        -1.303633
 H         3.932139        -1.552723         0.275042
 H         4.619475        -0.045569         0.911528
 H         1.839743        -1.353094         2.425379
 H         1.042865         2.762175         0.745305
