19
Iteration:  1031
 C        -0.067226        -0.531665         0.278128
 C         1.359491        -0.094013         0.052135
 C         2.290277        -0.853851        -0.812614
 C         3.426119         0.111752        -0.330752
 C         3.660900        -0.218807         1.138609
 C         2.305530         0.426803         1.380916
 O         1.829128         0.703632         2.595388
 C         2.232883         1.138619         0.009828
 O         1.963370         2.467137        -0.549375
 H        -0.659780         0.103656         0.907127
 H        -0.679107        -0.611813        -0.622672
 H         0.015112        -1.549660         0.691103
 H         2.635778        -1.914401        -0.515242
 H         2.122054        -0.710700        -1.947786
 H         4.246992         0.414911        -1.074791
 H         3.685092        -1.280777         1.221461
 H         4.551497         0.203145         1.632500
 H         1.316762         1.492250         2.478925
 H         1.792619         2.354143        -1.525101
