19
Iteration:  1487charge 0 multiplicity 1
 C        -0.094957        -0.469172         0.195138
 C         1.428748        -0.208805         0.244474
 C         2.430878        -1.010362        -0.653553
 C         3.389969         0.127440        -0.472740
 C         3.749174        -0.068728         1.085284
 C         2.380157         0.502598         1.307269
 O         1.932989         0.874419         2.570764
 C         2.086496         1.093373        -0.077091
 O         1.682897         2.337183        -0.553370
 H        -0.728738        -0.156797         1.024312
 H        -0.540407         0.006928        -0.729033
 H        -0.274552        -1.576572         0.038323
 H         2.699032        -2.038736        -0.326362
 H         1.926481        -1.009825        -1.617594
 H         4.092253         0.239890        -1.262830
 H         4.008236        -1.179592         1.348835
 H         4.619485         0.621477         1.462092
 H         1.735159         0.067334         3.124247
 H         2.357241         3.027369        -0.319912
