19
Iteration:   424charge 0 multiplicity 1
 C        -0.081526        -0.141749         0.164608
 C         1.390598        -0.263567         0.155285
 C         2.421218        -1.018259        -0.725290
 C         3.461410         0.061171        -0.365803
 C         3.646220        -0.062367         1.059517
 C         2.255602         0.387082         1.288500
 O         1.874496         0.653275         2.573766
 C         2.297639         1.095141         0.013026
 O         1.809825         2.346152        -0.438064
 H        -0.466861         0.526732         0.950475
 H        -0.527746         0.355512        -0.728876
 H        -0.675046        -1.069711         0.237464
 H         2.693823        -2.095547        -0.366656
 H         2.199826        -0.917952        -1.880357
 H         4.335269         0.232950        -0.924512
 H         4.092330        -1.011684         1.431274
 H         4.037125         0.861644         1.427694
 H         0.941869         1.029723         2.608611
 H         1.930698         2.372087        -1.426996
