19
Iteration:  4653charge 0 multiplicity 1
 C        -0.164851         0.222603         0.095202
 C         1.298415         0.119475        -0.020314
 C         2.164719        -0.210840        -1.333984
 C         3.219743         0.667557        -0.666640
 C         3.843649        -0.389099         0.407062
 C         2.425463        -0.176635         1.209456
 O         2.183079        -0.524400         2.597293
 C         2.178335         1.144890         0.474211
 O         1.762461         2.452036         0.689272
 H        -0.440584         1.278626         0.334034
 H        -0.624642         0.085792        -0.948452
 H        -0.642235        -0.357619         0.924817
 H         2.385887        -1.291994        -1.791910
 H         1.707698         0.358426        -2.167926
 H         4.030495         1.273059        -1.213562
 H         4.118129        -1.419045        -0.050361
 H         4.708171         0.083850         0.858933
 H         1.980587        -1.480016         2.756521
 H         2.263892         3.030439         1.336598
