19
Iteration:  2433
 C        -0.122983        -0.269492         0.170884
 C         1.358000        -0.271243         0.166472
 C         2.318085        -1.089045        -0.743594
 C         3.410248         0.104493        -0.520841
 C         3.804139        -0.000185         1.035188
 C         2.440576         0.401524         1.349791
 O         2.040379         0.816740         2.581250
 C         2.127412         0.995709        -0.021565
 O         1.645518         2.296966        -0.324049
 H        -0.213111         0.343943        -0.659908
 H        -0.655513        -1.206934         0.037170
 H        -0.489657         0.301688         1.066667
 H         2.818407        -2.017956        -0.445300
 H         1.989585        -1.360722        -1.738033
 H         4.216402         0.500410        -1.195881
 H         3.989093        -0.971135         1.555967
 H         4.556168         0.931911         1.253934
 H         1.826997         1.749352         2.502967
 H         1.161441         2.411940        -1.148829
