19
Iteration:   738charge 0 multiplicity 1
 C        -0.087727        -0.775709         0.148565
 C         1.280060        -0.228027         0.069171
 C         2.304709        -0.962891        -0.762749
 C         3.371833         0.105070        -0.452477
 C         3.647104        -0.202437         1.146926
 C         2.345058         0.471251         1.236065
 O         1.880970         1.197915         2.335263
 C         2.161877         1.065709        -0.093547
 O         1.975253         2.453488        -0.147667
 H        -0.614092        -0.298108         0.999324
 H        -0.642383        -0.633388        -0.809927
 H        -0.058750        -1.900217         0.372786
 H         2.764058        -1.961024        -0.473091
 H         2.070619        -1.076699        -1.801206
 H         4.283812         0.399143        -1.026173
 H         3.623235        -1.266461         1.399501
 H         4.537187         0.326646         1.590305
 H         1.890338         0.614148         3.090573
 H         2.366667         2.695455         0.711975
