19
Iteration:  2535charge 0 multiplicity 1
 C         0.043715        -0.576703         0.659918
 C         1.380727        -0.143998         0.113761
 C         2.314020        -0.856981        -0.948446
 C         3.396964         0.114051        -0.509702
 C         3.670244        -0.121346         1.062378
 C         2.338459         0.404831         1.237356
 O         1.728548         0.654833         2.418873
 C         2.084942         1.120780        -0.022054
 O         2.023174         2.484612        -0.375409
 H         0.093252        -1.494628         1.209920
 H        -0.368568         0.219078         1.276604
 H        -0.672980        -0.807710        -0.104249
 H         2.313581        -1.893013        -0.635139
 H         1.786628        -0.764902        -1.899597
 H         4.193616         0.428571        -1.146474
 H         3.966026        -1.091743         1.421615
 H         4.637798         0.564157         1.386883
 H         1.691182         1.631681         2.556471
 H         1.782342         2.661733        -1.313927
