19
Iteration:  1340
 C        -0.040896        -0.504376         0.125396
 C         1.399890        -0.232765         0.216831
 C         2.339110        -0.924775        -0.835629
 C         3.408188         0.211500        -0.476085
 C         3.784428        -0.132624         1.054160
 C         2.308614         0.331584         1.413548
 O         1.850491         0.953893         2.602806
 C         2.240715         1.071147         0.073321
 O         1.850379         2.274529        -0.485765
 H        -0.673802         0.425359         0.278321
 H        -0.246973        -0.976794        -0.853382
 H        -0.401091        -1.124537         0.971044
 H         2.407180        -1.946055        -0.559023
 H         1.944454        -0.760504        -1.853369
 H         4.057808         0.513869        -1.282848
 H         4.103361        -1.183391         1.236660
 H         4.512686         0.719142         1.352959
 H         0.890150         1.085999         2.542658
 H         1.122265         2.728950         0.009396
