19
Iteration:  1898
 C        -0.161308        -0.534998         0.173759
 C         1.334511        -0.128692         0.325598
 C         2.303818        -1.041691        -0.590055
 C         3.325985         0.086846        -0.603076
 C         3.828445        -0.020954         0.883241
 C         2.396195         0.342135         1.333292
 O         2.004555         0.925976         2.547124
 C         2.122338         1.089649        -0.030412
 O         1.818091         2.358659        -0.393792
 H        -0.882330         0.311844         0.214848
 H        -0.381523        -1.340214        -0.620275
 H        -0.287131        -0.998731         1.203233
 H         2.674627        -2.024461        -0.213394
 H         1.788625        -1.146831        -1.583423
 H         4.172599         0.195246        -1.259279
 H         4.252599        -1.075182         1.045729
 H         4.515718         0.712766         1.133384
 H         2.519533         1.748159         2.733582
 H         0.866771         2.533589        -0.444376
