19
Iteration:  1777charge 0 multiplicity 1
 C        -0.102703        -0.562628         0.434240
 C         1.337238        -0.180143         0.264039
 C         2.235794        -0.925767        -0.717681
 C         3.302071         0.058078        -0.493199
 C         3.781070         0.018206         1.067660
 C         2.362439         0.469283         1.245380
 O         1.926364         0.769839         2.540110
 C         2.186797         1.156557        -0.103293
 O         1.926514         2.377847        -0.608609
 H        -0.507966        -0.249206         1.440415
 H        -0.732329        -0.280466        -0.420794
 H        -0.275928        -1.667304         0.546180
 H         2.443167        -1.889704        -0.226217
 H         1.940777        -1.207540        -1.753688
 H         4.172467         0.127102        -1.287610
 H         4.256722        -0.929678         1.471536
 H         4.314434         0.830668         1.365294
 H         2.701916         1.004510         3.044710
 H         1.009715         2.476414        -0.888971
