19
Iteration:   720
 C        -0.073534        -0.713580         0.192690
 C         1.383825        -0.155749         0.125934
 C         2.303204        -1.091972        -0.701140
 C         3.414965         0.021947        -0.508854
 C         3.724563        -0.129373         0.961556
 C         2.216943         0.349616         1.267697
 O         1.770488         1.133255         2.384995
 C         2.242269         1.152224         0.002176
 O         2.023346         2.530854        -0.188654
 H        -0.591545        -0.542756         1.156132
 H        -0.622857        -0.311136        -0.651893
 H        -0.048549        -1.795382         0.193297
 H         2.445153        -2.135342        -0.313519
 H         2.081273        -1.235046        -1.857379
 H         4.172218         0.141388        -1.358056
 H         4.110594        -1.082652         1.365644
 H         4.410635         0.646777         1.223016
 H         1.118889         0.620893         2.862535
 H         1.879219         2.865951         0.722282
