19
Iteration:  4048charge 0 multiplicity 1
 C        -0.173964        -0.285491         0.275558
 C         1.301315        -0.064235         0.008792
 C         2.162263        -0.379878        -1.254656
 C         3.390541         0.348173        -0.697938
 C         3.875407        -0.361737         0.654119
 C         2.371295         0.070016         1.201027
 O         2.041473         0.110550         2.549172
 C         2.212190         1.226246         0.300961
 O         1.807736         2.547836         0.417218
 H        -0.638274        -0.772933        -0.603402
 H        -0.393929        -0.899235         1.176176
 H        -0.658869         0.694442         0.478593
 H         2.280683        -1.507162        -1.360317
 H         1.679519         0.021326        -2.176914
 H         3.895920         1.036643        -1.472426
 H         4.161149        -1.414065         0.433424
 H         4.796709         0.214321         1.117076
 H         1.230564        -0.422285         2.707417
 H         2.594683         2.840054         0.973986
