19
Iteration:  1836
 C        -0.017292        -0.359688         0.613785
 C         1.445304        -0.234923         0.166788
 C         2.245210        -1.069890        -0.812363
 C         3.360303         0.065946        -0.536390
 C         3.851402         0.013151         0.998679
 C         2.384477         0.381213         1.242568
 O         1.809510         0.862404         2.351339
 C         2.198227         1.043673        -0.046160
 O         1.765200         2.314341        -0.288545
 H        -0.408716         0.513880         1.063958
 H        -0.748781        -0.562867        -0.163970
 H         0.013917        -1.158107         1.290521
 H         2.446233        -2.125591        -0.601910
 H         1.981132        -0.859304        -1.847757
 H         4.126009         0.236979        -1.218075
 H         4.193698        -1.004394         1.194721
 H         4.553408         0.764079         1.518031
 H         1.372649         1.679269         2.021347
 H         1.860414         2.582542        -1.213082
