19
Iteration:   256charge 0 multiplicity 1
 C        -0.024341        -0.512723         0.500925
 C         1.367039        -0.156927         0.002750
 C         2.353081        -0.975365        -0.807856
 C         3.385276         0.036366        -0.545882
 C         3.631271        -0.264935         1.074724
 C         2.242818         0.329074         1.193456
 O         1.728031         1.005158         2.326594
 C         2.285996         1.110892        -0.041547
 O         2.062547         2.484679        -0.115481
 H        -0.447837         0.374774         0.967755
 H        -0.711611        -0.691190        -0.292760
 H        -0.116388        -1.294193         1.241070
 H         2.595018        -1.974806        -0.400672
 H         1.960553        -0.935328        -1.916618
 H         4.310346         0.270992        -1.199542
 H         3.825928        -1.212093         1.489784
 H         4.283492         0.564314         1.440253
 H         0.876167         0.562018         2.436875
 H         2.086619         2.686457        -1.093670
