19
Iteration:  2480charge 0 multiplicity 1
 C        -0.088202        -0.511503         0.354107
 C         1.441168        -0.283201         0.232503
 C         2.313883        -1.051580        -0.736553
 C         3.286985         0.160463        -0.509894
 C         3.794088        -0.051488         0.998563
 C         2.371540         0.448053         1.254954
 O         1.786464         0.786741         2.400448
 C         2.191130         1.104599        -0.095109
 O         1.901700         2.461052        -0.228338
 H        -0.325842        -1.274194        -0.342915
 H        -0.269347        -0.902712         1.364941
 H        -0.541914         0.420030         0.218867
 H         2.404242        -2.104654        -0.467921
 H         1.948842        -1.031786        -1.769143
 H         3.937176         0.252159        -1.344201
 H         4.015502        -1.082122         1.110337
 H         4.624812         0.760218         1.277060
 H         2.272005         1.510290         2.825175
 H         1.394897         2.679138        -1.034385
