19
Iteration:  1993
 C        -0.067414        -0.414724         0.526984
 C         1.443467        -0.184843         0.191933
 C         2.268613        -1.010333        -0.734533
 C         3.388602         0.047274        -0.468420
 C         3.797023         0.005273         1.014774
 C         2.438883         0.584608         1.311872
 O         1.824010         0.698962         2.531098
 C         2.197945         1.096933        -0.124695
 O         1.723854         2.328512        -0.611462
 H        -0.016524        -0.030379         1.571741
 H        -0.920572        -0.001348         0.017582
 H        -0.201757        -1.510516         0.682936
 H         2.575142        -2.021175        -0.438186
 H         1.743823        -0.920577        -1.691252
 H         4.145173         0.259770        -1.263554
 H         4.064658        -0.900181         1.553451
 H         4.725806         0.712554         1.199753
 H         2.344810         1.313550         3.110551
 H         1.361642         2.141623        -1.511314
