19
Iteration:   833
 C        -0.030324        -0.004790         0.410369
 C         1.424152        -0.097767         0.057867
 C         2.423814        -1.076208        -0.619144
 C         3.441256         0.183452        -0.386766
 C         3.752638         0.121192         1.029050
 C         2.259769         0.233087         1.346238
 O         1.679943         0.238029         2.602192
 C         2.187003         1.136539        -0.105667
 O         1.846295         2.340329        -0.759885
 H        -0.195523         1.038620         0.548007
 H        -0.779956        -0.416234        -0.232901
 H        -0.164350        -0.325820         1.434175
 H         2.726748        -2.015806        -0.150693
 H         2.301002        -1.341618        -1.695495
 H         4.236256         0.123106        -1.089098
 H         4.225201        -0.728688         1.493293
 H         4.251085         1.065588         1.286741
 H         1.629298         1.191563         2.918483
 H         2.040681         3.156955        -0.220554
