19
Iteration:  3275
 C        -0.129523        -0.393561         0.357753
 C         1.301933        -0.110419         0.159580
 C         2.217643        -0.802506        -0.950790
 C         3.215191         0.237562        -0.551073
 C         3.773492        -0.111563         0.798806
 C         2.394182         0.278198         1.310641
 O         2.087255         0.330787         2.725314
 C         2.178003         1.203030         0.070022
 O         1.989499         2.593674        -0.299468
 H        -0.488297        -0.945930        -0.506250
 H        -0.232995        -0.986884         1.275202
 H        -0.853977         0.415585         0.608090
 H         2.468382        -1.853774        -1.215164
 H         1.638073        -0.479120        -1.835230
 H         3.899680         0.572937        -1.368124
 H         4.179740        -1.114460         0.781182
 H         4.583150         0.656048         1.166181
 H         1.375123        -0.315024         2.906577
 H         1.009112         2.625306        -0.384197
