19
Iteration:  3713charge 0 multiplicity 1
 C        -0.129195        -0.168371         0.212966
 C         1.383728        -0.129374         0.100146
 C         2.205051        -0.712944        -1.109903
 C         3.249358         0.336072        -0.657997
 C         3.798226        -0.226145         0.802765
 C         2.467579         0.219071         1.213384
 O         2.056837         0.344682         2.452940
 C         2.164727         1.124472         0.127843
 O         1.807545         2.416362         0.375335
 H        -0.382849        -0.121470         1.289229
 H        -0.562150         0.740773        -0.223557
 H        -0.598312        -1.039985        -0.390130
 H         2.522925        -1.784753        -1.060992
 H         1.843078        -0.428958        -2.119804
 H         4.021682         0.815790        -1.240320
 H         4.168088        -1.264622         0.981420
 H         4.530859         0.456890         1.227457
 H         2.049923        -0.556052         2.859824
 H         1.108974         2.658489        -0.256377
