19
Iteration:  4226
 C        -0.184858        -0.171882         0.214131
 C         1.306703         0.054930         0.040000
 C         2.098130        -0.364093        -1.160652
 C         3.272410         0.470449        -0.662153
 C         3.915311        -0.332076         0.594881
 C         2.420397         0.048131         1.241441
 O         2.027393        -0.175449         2.518206
 C         2.164854         1.190218         0.292587
 O         1.918093         2.586089         0.410920
 H        -0.686857         0.201664        -0.642222
 H        -0.388761        -1.237190         0.145466
 H        -0.572170         0.188645         1.199527
 H         2.342203        -1.436214        -1.426557
 H         1.634573         0.132781        -2.042610
 H         3.764884         1.024840        -1.436405
 H         4.246745        -1.311207         0.266909
 H         4.644180         0.262967         1.059483
 H         1.718343        -1.091062         2.687179
 H         2.457715         2.906207         1.191933
