19
Iteration:  2356
 C        -0.053069        -0.432148         0.641936
 C         1.358355        -0.228297         0.168786
 C         2.380744        -0.980222        -0.789689
 C         3.404821         0.097005        -0.536537
 C         3.691179        -0.026076         1.051242
 C         2.262591         0.498208         1.210475
 O         1.875628         0.721358         2.581935
 C         2.168265         1.115002        -0.115446
 O         1.927952         2.378893        -0.583121
 H        -0.239087         0.207305         1.498453
 H        -0.668928        -0.241762        -0.209183
 H        -0.050377        -1.502091         1.015139
 H         2.614832        -1.985304        -0.400957
 H         1.859521        -1.150152        -1.726372
 H         4.305838         0.337534        -1.140611
 H         4.029365        -1.049103         1.299581
 H         4.368342         0.873399         1.503063
 H         0.959452         1.017885         2.688889
 H         1.613612         2.342218        -1.514655
