19
Iteration:  1542
 C        -0.104367        -0.305851         0.470564
 C         1.450905        -0.379350         0.193361
 C         2.396231        -1.088827        -0.759434
 C         3.492189         0.137116        -0.436690
 C         3.832455         0.100183         1.067218
 C         2.334913         0.388136         1.190966
 O         1.801051         0.904581         2.331196
 C         2.181568         1.016672        -0.144436
 O         1.759492         2.293428        -0.251647
 H        -0.219600         0.516226         1.187449
 H        -0.642905         0.146948        -0.454844
 H        -0.736925        -1.214616         0.784105
 H         2.547528        -2.154786        -0.507863
 H         1.974929        -1.085346        -1.754697
 H         4.214686         0.277595        -1.136939
 H         4.383162        -0.912508         1.316857
 H         4.580518         0.977290         1.318463
 H         0.941195         0.518790         2.626766
 H         1.186845         2.318580        -1.060983
