19
Iteration:  1513
 C        -0.042114        -0.335659         0.257164
 C         1.469227        -0.230140         0.194575
 C         2.392041        -1.088851        -0.694326
 C         3.355013         0.110992        -0.533299
 C         3.828493         0.071823         0.988055
 C         2.331127         0.387044         1.318715
 O         1.811717         0.914516         2.528876
 C         2.232028         1.049656        -0.035929
 O         1.773249         2.226029        -0.417658
 H        -0.497439         0.139574         1.120814
 H        -0.576040         0.149461        -0.511674
 H        -0.354741        -1.339142         0.177558
 H         2.657422        -2.085353        -0.274053
 H         1.828011        -1.273404        -1.628159
 H         4.086907         0.217961        -1.366300
 H         4.504221        -0.725600         1.226184
 H         4.377263         0.922775         1.061588
 H         0.925248         0.569264         2.803006
 H         1.106327         2.571480         0.238505
