19
Iteration:  1880
 C        -0.104257        -0.522541         0.305297
 C         1.297767        -0.288009         0.152123
 C         2.280398        -1.082105        -0.676086
 C         3.305580         0.154593        -0.507771
 C         3.831412        -0.087770         0.914142
 C         2.407093         0.459361         1.283271
 O         2.002136         0.976935         2.498210
 C         2.166216         1.020667        -0.043059
 O         1.819711         2.399413        -0.277449
 H        -0.715794         0.332685         0.085223
 H        -0.391705        -1.084742        -0.586130
 H        -0.548661        -1.064213         1.092582
 H         2.603512        -1.900315        -0.029764
 H         2.022919        -1.363380        -1.681863
 H         3.721219         0.399364        -1.453286
 H         4.130495        -1.071045         1.247168
 H         4.624086         0.638594         1.257436
 H         2.486864         1.840862         2.603641
 H         0.911402         2.378166        -0.627511
