19
Iteration:  2026charge 0 multiplicity 1
 C        -0.117577        -0.509514         0.249132
 C         1.350082        -0.343542         0.270139
 C         2.308899        -1.061452        -0.586614
 C         3.277808         0.147841        -0.521953
 C         3.767736         0.025073         0.938939
 C         2.338353         0.380642         1.319295
 O         2.016965         0.963837         2.543191
 C         2.144754         1.008449        -0.077446
 O         1.852696         2.390690        -0.435256
 H        -0.410415        -0.186785         1.265995
 H        -0.796840        -0.061551        -0.462218
 H        -0.407353        -1.601069         0.306261
 H         2.784420        -2.012861        -0.270985
 H         1.695994        -1.244015        -1.483129
 H         3.934195         0.448958        -1.352155
 H         4.244610        -0.911780         1.185099
 H         4.421959         0.995914         1.087310
 H         2.628321         1.679937         2.746074
 H         1.350741         2.425451        -1.273013
