19
Iteration:  1099
 C        -0.130779        -0.090589         0.278845
 C         1.407970        -0.195945         0.114164
 C         2.487886        -1.045560        -0.720964
 C         3.463132         0.129022        -0.430454
 C         3.802877         0.099746         1.128988
 C         2.317684         0.315916         1.249605
 O         1.600454         0.562737         2.478966
 C         2.255621         1.040491        -0.098197
 O         1.835579         2.276344        -0.495223
 H        -0.409171         0.939697         0.492898
 H        -0.735222        -0.310296        -0.573777
 H        -0.378114        -0.695309         1.132905
 H         2.621376        -2.113786        -0.213149
 H         2.231212        -1.143163        -1.799678
 H         4.331794         0.502006        -1.118343
 H         4.092925        -0.793702         1.567908
 H         4.401953         0.964917         1.483848
 H         2.286176         0.519417         3.209231
 H         1.518655         2.628100         0.366954
