19
Iteration:  4425
 C        -0.032665         0.004484         0.391111
 C         1.431821        -0.026315        -0.020786
 C         2.083427        -0.254847        -1.389868
 C         3.331572         0.621549        -0.615398
 C         3.761533        -0.420290         0.564134
 C         2.403899        -0.023657         1.184372
 O         2.018498        -0.322938         2.445674
 C         2.289614         1.207281         0.321288
 O         1.731308         2.497180         0.558446
 H        -0.573046         0.990265         0.257902
 H        -0.545534        -0.694875        -0.311630
 H        -0.184802        -0.372303         1.428446
 H         2.212543        -1.365911        -1.523089
 H         1.637050         0.261799        -2.294022
 H         4.216629         1.246030        -1.022035
 H         4.057008        -1.457885         0.268822
 H         4.657618        -0.068856         0.981272
 H         1.153561        -0.794352         2.549336
 H         2.344080         3.117446         0.971375
