19
Iteration:  3500
 C        -0.126010        -0.249712         0.303015
 C         1.364296        -0.135662         0.105486
 C         2.212980        -0.684654        -1.087727
 C         3.383589         0.276971        -0.529489
 C         3.760826        -0.204590         0.836123
 C         2.422826         0.236121         1.262648
 O         2.007554         0.394880         2.548288
 C         2.277431         1.175368         0.179898
 O         1.742727         2.415032        -0.011112
 H        -0.463407        -0.265296         1.391800
 H        -0.726747         0.609125        -0.028368
 H        -0.398123        -1.164335        -0.180945
 H         2.212797        -1.795884        -1.072116
 H         1.713793        -0.369331        -2.023890
 H         4.054937         0.637820        -1.337282
 H         3.962598        -1.301672         0.851636
 H         4.599041         0.423728         1.199206
 H         2.473526        -0.209718         3.175204
 H         1.220566         2.480792        -0.824829
