19
Iteration:  2854charge 0 multiplicity 1
 C        -0.109980        -0.097623         0.321451
 C         1.378241        -0.201341         0.147988
 C         2.364758        -0.846244        -0.947142
 C         3.369085         0.278282        -0.527806
 C         3.719895        -0.045631         0.946376
 C         2.349550         0.304311         1.411163
 O         2.070648         0.328015         2.787506
 C         2.166529         1.087134         0.005805
 O         1.641704         2.282332        -0.506453
 H        -0.667586         0.721427         0.851355
 H        -0.623605        -0.209745        -0.686859
 H        -0.454554        -0.972668         0.851847
 H         2.607830        -1.917381        -0.906829
 H         1.986148        -0.785585        -1.977200
 H         4.106128         0.696809        -1.258354
 H         4.047096        -1.034234         1.212056
 H         4.596889         0.656895         1.259787
 H         2.042323         1.277551         3.036463
 H         2.299847         3.004811        -0.596723
