19
Iteration:  2313
 C        -0.166154        -0.690119         0.428619
 C         1.327245        -0.161446         0.250832
 C         2.210962        -1.083358        -0.628516
 C         3.332058         0.053659        -0.537355
 C         3.873962         0.081106         0.966811
 C         2.344374         0.559208         1.272494
 O         1.888078         0.859524         2.499891
 C         2.180325         1.092505        -0.107186
 O         2.022500         2.406584        -0.399692
 H        -0.611202        -0.595201         1.478241
 H        -0.855236        -0.073832        -0.193850
 H        -0.164370        -1.785286         0.058479
 H         2.658048        -2.086692        -0.533693
 H         1.858290        -1.147065        -1.700421
 H         3.872231         0.076527        -1.518133
 H         4.049412        -0.807008         1.379279
 H         4.591971         1.041332         1.025978
 H         1.046731         1.352314         2.615805
 H         1.960400         2.529015        -1.385582
