19
Iteration:  3184
 C        -0.067225        -0.304292         0.506911
 C         1.384597        -0.185340         0.098949
 C         2.215636        -0.803342        -0.940609
 C         3.371564         0.231984        -0.657829
 C         3.850990        -0.175030         0.783283
 C         2.401722         0.178349         1.217754
 O         1.865148         0.596543         2.405415
 C         2.173357         1.060264         0.019266
 O         1.834585         2.427812         0.137867
 H        -0.634353         0.591763         0.051156
 H        -0.577796        -1.200310         0.180302
 H        -0.193418        -0.317511         1.620485
 H         2.650620        -1.825458        -0.933730
 H         1.794923        -0.730060        -1.949726
 H         4.152655         0.494410        -1.366815
 H         4.348242        -1.167731         0.773508
 H         4.494716         0.541206         1.149065
 H         1.970491         1.556818         2.433415
 H         1.031726         2.598650        -0.400946
