19
Iteration:  4663charge 0 multiplicity 1
 C        -0.167015         0.256340         0.143646
 C         1.324989         0.010626        -0.119189
 C         2.131814        -0.135751        -1.367411
 C         3.259653         0.628022        -0.613656
 C         3.849350        -0.413954         0.439376
 C         2.386709        -0.115167         1.153086
 O         2.167009        -0.483824         2.550282
 C         2.241927         1.194423         0.493859
 O         1.743946         2.417026         0.692717
 H        -0.363158         1.340501         0.230598
 H        -0.897280        -0.313886        -0.478883
 H        -0.428611        -0.232489         1.113699
 H         2.396730        -1.243522        -1.429763
 H         1.656332         0.301751        -2.238729
 H         3.979947         1.279534        -1.240940
 H         4.091452        -1.426079        -0.017433
 H         4.686712        -0.058597         1.067998
 H         2.121582        -1.487958         2.557917
 H         2.054416         2.758762         1.586198
