19
Iteration:  3712
 C        -0.134975        -0.169437         0.209168
 C         1.388806        -0.132339         0.102257
 C         2.201631        -0.710621        -1.114110
 C         3.240011         0.346592        -0.650966
 C         3.804517        -0.221685         0.807384
 C         2.471246         0.217007         1.214074
 O         2.056469         0.342415         2.455547
 C         2.168699         1.127516         0.124308
 O         1.813385         2.413624         0.370212
 H        -0.388892        -0.142179         1.279945
 H        -0.560983         0.713062        -0.206474
 H        -0.604197        -1.003722        -0.418910
 H         2.524958        -1.789687        -1.045513
 H         1.820211        -0.456409        -2.130801
 H         3.992450         0.794364        -1.258459
 H         4.159145        -1.274891         1.009727
 H         4.505292         0.434122         1.215843
 H         2.067411        -0.555842         2.873938
 H         1.094495         2.666886        -0.247288
