19
Iteration:  4179charge 0 multiplicity 1
 C        -0.076045        -0.177622         0.425395
 C         1.386270         0.059161        -0.063540
 C         2.124660        -0.288656        -1.296147
 C         3.334701         0.470111        -0.583608
 C         3.735898        -0.385253         0.604424
 C         2.467485         0.096059         1.228349
 O         1.917744        -0.187475         2.570110
 C         2.232639         1.227631         0.195523
 O         1.805069         2.503750         0.304702
 H        -0.559216         0.653967         0.976909
 H        -0.810677        -0.407179        -0.370170
 H         0.074624        -1.069166         1.063128
 H         2.337041        -1.357285        -1.556948
 H         1.828855         0.312232        -2.190728
 H         4.262414         1.080994        -0.883211
 H         3.736414        -1.438512         0.547209
 H         4.603848         0.092658         1.197027
 H         2.259551        -1.036087         2.863971
 H         2.428495         3.047548         0.811556
