19
Iteration:  4160charge 0 multiplicity 1
 C        -0.065905        -0.205899         0.413516
 C         1.408702         0.001997         0.011010
 C         2.166506        -0.305620        -1.272725
 C         3.332765         0.451853        -0.681217
 C         3.846675        -0.409767         0.642501
 C         2.443431        -0.017227         1.212799
 O         1.886441        -0.043548         2.456594
 C         2.215819         1.184715         0.401351
 O         1.758822         2.582716         0.319642
 H        -0.309063         0.315422         1.323515
 H        -0.673191         0.274830        -0.347618
 H        -0.438511        -1.271082         0.563497
 H         2.224488        -1.360230        -1.607681
 H         1.764894         0.386391        -2.040709
 H         3.991996         0.861676        -1.478665
 H         3.981113        -1.538195         0.506311
 H         4.667044         0.035818         1.142804
 H         2.129952        -0.963343         2.631437
 H         2.356930         3.191048         0.746749
