19
Iteration:  2335charge 0 multiplicity 1
 C        -0.068724        -0.584242         0.526894
 C         1.342793        -0.204086         0.155572
 C         2.282130        -1.051040        -0.626729
 C         3.293398         0.155938        -0.500608
 C         3.693704         0.030203         0.944428
 C         2.347181         0.412904         1.293039
 O         1.896493         0.778812         2.577591
 C         2.149567         1.112305        -0.106225
 O         2.038792         2.464443        -0.557550
 H        -0.259705        -0.301018         1.595940
 H        -0.839149        -0.177366        -0.150329
 H        -0.015602        -1.713373         0.498457
 H         2.436943        -2.041115        -0.155484
 H         2.099689        -1.241929        -1.698741
 H         3.975304         0.423281        -1.343725
 H         3.947043        -0.866026         1.359831
 H         4.374552         0.990502         1.068208
 H         0.983492         1.028409         2.359137
 H         2.058954         2.522116        -1.519470
