19
Iteration:  2044
 C        -0.163903        -0.558554         0.262585
 C         1.382674        -0.274146         0.308351
 C         2.331127        -1.173145        -0.680700
 C         3.270349         0.053430        -0.586486
 C         3.808224         0.046132         0.905954
 C         2.393419         0.502020         1.271708
 O         2.014492         1.029844         2.516629
 C         2.058873         1.012965        -0.041564
 O         1.869410         2.353861        -0.248596
 H        -0.855014         0.032099         0.928402
 H        -0.357243        -0.149905        -0.778655
 H        -0.452192        -1.600591         0.251387
 H         2.682261        -2.038906        -0.099104
 H         1.976654        -1.320868        -1.712504
 H         3.981353         0.235163        -1.508677
 H         4.138085        -0.875050         1.371367
 H         4.571128         0.748507         1.178587
 H         2.168137         1.974044         2.362839
 H         1.238804         2.526820        -0.978687
