19
Iteration:  2221
 C         0.022657        -0.240081         0.457887
 C         1.513685        -0.230652         0.229774
 C         2.248951        -1.071747        -0.743949
 C         3.426392         0.063735        -0.526987
 C         3.853646        -0.026793         0.978929
 C         2.400710         0.474239         1.310765
 O         1.772693         0.796458         2.486095
 C         2.228929         1.071970        -0.075063
 O         1.665987         2.235434        -0.437603
 H        -0.383455         0.423331         1.202367
 H        -0.472364         0.049895        -0.473665
 H        -0.427828        -1.199060         0.664613
 H         2.514403        -2.096629        -0.452012
 H         1.738319        -1.133525        -1.688213
 H         4.253761         0.168633        -1.261489
 H         4.018463        -0.923952         1.634107
 H         4.516329         0.802447         1.001371
 H         2.091420         1.669882         2.727791
 H         0.991148         2.207387        -1.137082
