19
Iteration:  3208charge 0 multiplicity 1
 C        -0.063332        -0.319319         0.537630
 C         1.386722        -0.177755         0.042862
 C         2.222861        -0.845873        -1.069986
 C         3.348780         0.202565        -0.691736
 C         3.758075        -0.175176         0.884077
 C         2.367035         0.306502         1.243418
 O         1.995378         0.545681         2.502261
 C         2.173258         1.094280         0.003166
 O         1.819871         2.444561         0.098393
 H        -0.839394         0.225343        -0.038392
 H        -0.290028        -1.354232         0.541907
 H        -0.214666        -0.132131         1.639056
 H         2.583679        -1.907270        -1.167303
 H         1.874586        -0.659057        -2.098452
 H         4.169445         0.536689        -1.379094
 H         4.037210        -1.234418         1.043017
 H         4.497840         0.593213         1.213869
 H         1.187905         1.105897         2.568377
 H         1.832971         2.924597        -0.744001
