19
Iteration:  1079
 C        -0.081892        -0.208539         0.280231
 C         1.413234        -0.164607         0.079510
 C         2.392415        -0.931373        -0.786857
 C         3.469317         0.130129        -0.389878
 C         3.798250        -0.071218         1.165043
 C         2.315159         0.396626         1.343809
 O         1.668226         0.537179         2.571395
 C         2.190106         1.098488         0.038279
 O         1.875209         2.285021        -0.635013
 H        -0.453198         0.830063         0.417173
 H        -0.575238        -0.529045        -0.649777
 H        -0.444726        -0.887094         1.034949
 H         2.501659        -2.069435        -0.685860
 H         2.237108        -0.659748        -1.806942
 H         4.358675         0.330720        -0.980528
 H         4.278339        -0.989758         1.533141
 H         4.429192         0.793489         1.350068
 H         2.160312         1.255715         3.069267
 H         1.049212         2.733525        -0.461264
