19
Iteration:  1872charge 0 multiplicity 1
 C        -0.157772        -0.486537         0.309323
 C         1.350299        -0.268947         0.219457
 C         2.315472        -1.147436        -0.764003
 C         3.319909         0.086487        -0.554517
 C         3.772404        -0.008321         0.939772
 C         2.395735         0.467488         1.265820
 O         1.997404         0.979797         2.478177
 C         2.161315         1.038448        -0.047764
 O         1.823267         2.383951        -0.227514
 H        -0.783642         0.435419         0.449724
 H        -0.445941        -1.159905        -0.466621
 H        -0.319240        -1.014306         1.285039
 H         2.742903        -2.089344        -0.342035
 H         2.134554        -1.368406        -1.827654
 H         4.058616         0.296940        -1.416029
 H         3.930172        -1.061787         1.121316
 H         4.621270         0.678214         1.460942
 H         2.224995         1.911256         2.648034
 H         1.019236         2.356356        -0.766962
