19
Iteration:   780charge 0 multiplicity 1
 C        -0.080302        -0.433846         0.208402
 C         1.433107        -0.223913         0.119823
 C         2.368512        -0.954166        -0.887113
 C         3.436964         0.080791        -0.450124
 C         3.754747        -0.182767         1.112409
 C         2.307626         0.345004         1.340307
 O         1.735658         0.998452         2.501211
 C         2.236028         1.063880        -0.001961
 O         1.823791         2.326472        -0.385827
 H        -0.572743         0.537750         0.318155
 H        -0.475829        -0.891519        -0.717490
 H        -0.432275        -1.112185         1.022185
 H         2.426678        -2.017107        -0.705484
 H         1.968666        -0.773711        -1.835560
 H         4.230837         0.322954        -1.157789
 H         4.038778        -1.172284         1.566955
 H         4.507037         0.640721         1.365730
 H         2.478267         1.014845         3.162012
 H         1.593244         2.886787         0.396697
