19
Iteration:  2070
 C        -0.056786        -0.475687         0.378697
 C         1.383209        -0.202912         0.183683
 C         2.261325        -1.097726        -0.663170
 C         3.403268         0.014227        -0.639662
 C         3.832500        -0.034381         0.946211
 C         2.371487         0.363121         1.229743
 O         1.964298         1.094635         2.378226
 C         2.144646         1.008579        -0.046322
 O         1.752262         2.339908        -0.107224
 H        -0.679528         0.314480         0.829963
 H        -0.476808        -0.674054        -0.633269
 H        -0.199977        -1.466517         0.953724
 H         2.447900        -2.091873        -0.202212
 H         1.943976        -1.103657        -1.717607
 H         4.205375        -0.177353        -1.389075
 H         4.322252        -0.880261         1.382060
 H         4.367932         0.933022         1.343764
 H         1.442694         1.779703         1.953645
 H         1.289537         2.489852        -0.949396
