19
Iteration:   984
 C        -0.099672        -0.433835         0.339335
 C         1.426677        -0.322039         0.146813
 C         2.385785        -1.098727        -0.747221
 C         3.380255         0.126341        -0.515424
 C         3.798510        -0.024012         0.984802
 C         2.263008         0.314389         1.196330
 O         1.609305         0.903314         2.370980
 C         2.201661         1.037499        -0.134481
 O         2.077362         2.431632        -0.011342
 H        -0.398704         0.053382         1.284235
 H        -0.605976         0.246423        -0.401117
 H        -0.557956        -1.439568         0.240586
 H         2.586007        -2.099324        -0.371387
 H         1.980081        -1.055365        -1.819418
 H         4.125270         0.281341        -1.202873
 H         4.310280        -0.921221         1.458504
 H         4.278024         0.868911         1.329240
 H         1.137090         1.724166         2.012432
 H         2.086255         2.754831        -0.947251
