19
Iteration:   775charge 0 multiplicity 1
 C        -0.091030        -0.497753         0.194410
 C         1.431504        -0.215628         0.130366
 C         2.335672        -0.971775        -0.908631
 C         3.440331         0.100043        -0.449480
 C         3.734890        -0.206528         1.123879
 C         2.264991         0.286127         1.350831
 O         1.768691         1.066492         2.503455
 C         2.260901         1.068121        -0.006614
 O         1.823245         2.353395        -0.375609
 H        -0.584019         0.477336         0.355271
 H        -0.551126        -0.845049        -0.736839
 H        -0.346931        -1.145722         1.020196
 H         2.703838        -2.049775        -0.802252
 H         1.957140        -0.635159        -1.963588
 H         4.324360         0.308367        -1.081264
 H         4.102181        -1.116408         1.587287
 H         4.412228         0.567725         1.376541
 H         2.481969         1.054069         3.123946
 H         1.693774         2.890887         0.421519
