19
Iteration:  4043charge 0 multiplicity 1
 C        -0.163550        -0.285923         0.332535
 C         1.322995        -0.025991         0.040021
 C         2.189594        -0.353650        -1.233750
 C         3.357735         0.358599        -0.688571
 C         3.840935        -0.371352         0.660012
 C         2.410328         0.054707         1.171934
 O         2.013861         0.097407         2.520632
 C         2.206742         1.258284         0.230833
 O         1.814237         2.511700         0.409140
 H        -0.622398        -0.636606        -0.611833
 H        -0.352043        -1.063322         1.108454
 H        -0.745978         0.607955         0.563049
 H         2.288479        -1.440702        -1.314163
 H         1.725992         0.083239        -2.118349
 H         4.093321         0.852436        -1.285572
 H         4.108730        -1.426983         0.554205
 H         4.638448         0.223448         1.070416
 H         1.313231        -0.557832         2.716176
 H         2.528866         2.959613         0.872745
