19
Iteration:   815
 C        -0.052899        -0.076023         0.358341
 C         1.460711        -0.194821         0.173279
 C         2.441207        -1.064483        -0.608242
 C         3.433670         0.090407        -0.516792
 C         3.793805         0.000833         1.067736
 C         2.317499         0.380422         1.266068
 O         1.608044         0.405237         2.515974
 C         2.255377         1.134215        -0.084978
 O         1.806329         2.394635        -0.616290
 H        -0.423616         0.983738         0.261838
 H        -0.486819        -0.593800        -0.526855
 H        -0.433738        -0.497801         1.338710
 H         2.600039        -1.979831         0.007611
 H         2.038304        -1.385423        -1.539308
 H         4.228466         0.430112        -1.295967
 H         4.248964        -0.980011         1.393478
 H         4.473586         0.884629         1.370299
 H         1.971152         1.149116         3.088309
 H         1.553099         2.901352         0.195078
