19
Iteration:  1511
 C        -0.032716        -0.352884         0.241667
 C         1.474493        -0.231074         0.194726
 C         2.362824        -1.094977        -0.690479
 C         3.364388         0.120508        -0.529206
 C         3.814346         0.071431         0.973187
 C         2.319204         0.396287         1.328694
 O         1.817832         0.914831         2.545584
 C         2.249089         1.053547        -0.035663
 O         1.763575         2.231043        -0.433502
 H        -0.468728         0.087087         1.114092
 H        -0.560915         0.168689        -0.554720
 H        -0.386444        -1.380915         0.170776
 H         2.674686        -2.058204        -0.212613
 H         1.856539        -1.277295        -1.636941
 H         4.046557         0.260577        -1.280774
 H         4.483119        -0.843118         1.211043
 H         4.450479         0.939198         1.060063
 H         0.986323         0.542109         2.843362
 H         1.201119         2.648467         0.262799
