19
Iteration:  2777
 C        -0.110663        -0.386501         0.460896
 C         1.395704        -0.210715         0.156293
 C         2.364902        -0.963721        -0.943040
 C         3.379190         0.173900        -0.526919
 C         3.756891        -0.137636         0.977264
 C         2.324343         0.273232         1.218139
 O         1.847224         0.741816         2.364653
 C         2.162261         1.093286        -0.116774
 O         1.778479         2.420206        -0.122390
 H        -0.144079        -1.146814         1.335751
 H        -0.548335         0.633362         0.794699
 H        -0.595893        -0.700025        -0.463753
 H         2.770280        -1.986744        -0.738676
 H         1.850834        -0.877171        -1.928194
 H         4.240983         0.535534        -1.135795
 H         4.206315        -1.027144         1.230686
 H         4.424392         0.702824         1.403622
 H         2.546162         1.176405         2.864043
 H         2.153539         2.961805         0.611527
