19
Iteration:  3896
 C        -0.076049        -0.193812         0.291185
 C         1.377771        -0.076138         0.000511
 C         2.259134        -0.501106        -1.195721
 C         3.395092         0.287313        -0.738336
 C         3.745187        -0.347324         0.689226
 C         2.407193         0.037310         1.152742
 O         2.045180         0.276063         2.588910
 C         2.212716         1.167454         0.147156
 O         1.674993         2.500294         0.465939
 H        -0.430318        -0.834244         1.084786
 H        -0.285069         0.858262         0.451632
 H        -0.717736        -0.533943        -0.555631
 H         2.297058        -1.554153        -1.402566
 H         1.548462        -0.117288        -1.906057
 H         4.176211         0.530882        -1.476977
 H         4.200689        -1.309668         0.471459
 H         4.419029         0.324320         1.080858
 H         1.246562        -0.245884         2.777337
 H         2.372827         2.937952         1.025978
