19
Iteration:  1377charge 0 multiplicity 1
 C        -0.077066        -0.424776         0.382218
 C         1.445116        -0.245874         0.020967
 C         2.414490        -1.065304        -0.745054
 C         3.417084         0.080514        -0.452184
 C         3.759224         0.071210         1.068164
 C         2.312300         0.476697         1.193178
 O         1.771432         0.681353         2.522902
 C         2.136318         1.083513        -0.139210
 O         1.839106         2.445679        -0.255896
 H        -0.533640         0.551760         0.412138
 H        -0.693299        -0.952289        -0.381609
 H        -0.151075        -1.111286         1.228507
 H         2.577469        -2.098641        -0.341987
 H         2.177416        -1.314577        -1.792930
 H         4.287703         0.210577        -1.171759
 H         4.006140        -0.845749         1.645428
 H         4.544357         0.703903         1.453766
 H         1.221117         1.458177         2.509970
 H         2.101989         2.627208        -1.198437
