19
Iteration:  2627
 C        -0.025218        -0.159863         0.234212
 C         1.470677        -0.210924         0.179583
 C         2.365072        -1.040515        -0.752107
 C         3.365691         0.125413        -0.549503
 C         3.822589        -0.060705         0.909526
 C         2.349243         0.329473         1.272877
 O         1.852492         0.713146         2.493178
 C         2.172202         1.025117         0.005653
 O         1.634336         2.285414        -0.132867
 H        -0.184610         0.932736         0.249554
 H        -0.409797        -0.599803        -0.650085
 H        -0.390747        -0.494826         1.214956
 H         2.585337        -2.081001        -0.502272
 H         2.061107        -0.952514        -1.820848
 H         4.058978         0.546546        -1.330352
 H         4.354151        -1.057649         1.239877
 H         4.566189         0.723111         1.075805
 H         2.403422         1.482510         2.685216
 H         1.113828         2.387737        -0.948091
