19
Iteration:  1405charge 0 multiplicity 1
 C         0.011119        -0.392622         0.523228
 C         1.471177        -0.146332         0.095301
 C         2.411288        -0.992886        -0.686325
 C         3.389320         0.129398        -0.467844
 C         3.812870        -0.036296         0.992871
 C         2.306740         0.371395         1.233690
 O         1.561328         0.623536         2.413716
 C         2.230382         1.144775        -0.104328
 O         1.819390         2.371820        -0.482185
 H        -0.528379         0.507207         0.980615
 H        -0.585467        -0.788352        -0.317120
 H        -0.025558        -1.163947         1.325483
 H         2.595326        -1.933801        -0.164064
 H         2.178083        -1.210228        -1.748934
 H         4.172796         0.377017        -1.208990
 H         4.202991        -0.994835         1.453995
 H         4.421943         0.892114         1.279757
 H         1.834762         1.458863         2.801223
 H         2.233439         2.966282         0.205754
