19
Iteration:  2478
 C        -0.102685        -0.506532         0.343075
 C         1.444070        -0.270590         0.232366
 C         2.326178        -1.050176        -0.738599
 C         3.283521         0.156002        -0.514377
 C         3.792090        -0.041003         1.003720
 C         2.370418         0.433437         1.262648
 O         1.802091         0.791948         2.412261
 C         2.189053         1.105042        -0.103412
 O         1.891028         2.446890        -0.223081
 H        -0.295986        -1.217264        -0.389976
 H        -0.312739        -0.959994         1.313212
 H        -0.541896         0.478077         0.206908
 H         2.387966        -2.097255        -0.430831
 H         1.901856        -1.051448        -1.731012
 H         3.974393         0.241661        -1.356594
 H         4.032724        -1.091769         1.086224
 H         4.618545         0.793459         1.273989
 H         2.291551         1.517782         2.800587
 H         1.419974         2.626115        -1.048948
