19
Iteration:  2256charge 0 multiplicity 1
 C        -0.104856        -0.363672         0.474669
 C         1.401484        -0.236932         0.185703
 C         2.367170        -1.060996        -0.792937
 C         3.541909         0.076815        -0.506302
 C         3.802306        -0.174996         0.996870
 C         2.412485         0.467172         1.251950
 O         1.822145         1.047416         2.341459
 C         2.189829         1.009443        -0.089316
 O         1.643444         2.252913        -0.243872
 H        -0.212893        -0.031163         1.494784
 H        -0.555601         0.375033        -0.158763
 H        -0.562256        -1.390288         0.298727
 H         2.784646        -1.945771        -0.311250
 H         1.931762        -1.282270        -1.750784
 H         4.404932         0.217163        -1.138545
 H         4.074492        -1.118448         1.390040
 H         4.682917         0.462176         1.346669
 H         1.961612         1.992492         2.456780
 H         0.912092         2.287330        -0.869853
