19
Iteration:   924
 C        -0.083828        -0.460328         0.213339
 C         1.444719        -0.237034         0.111541
 C         2.361164        -1.026529        -0.836737
 C         3.398390         0.071700        -0.430553
 C         3.680395        -0.129781         1.163853
 C         2.346642         0.473794         1.260759
 O         1.776482         0.890834         2.447509
 C         2.181553         1.096007        -0.083231
 O         1.844150         2.377548        -0.320780
 H        -0.529681        -0.149611         1.174459
 H        -0.544026         0.090453        -0.614650
 H        -0.411139        -1.511881         0.108602
 H         2.549914        -2.081067        -0.659040
 H         2.071795        -0.896093        -1.827005
 H         4.345932         0.171827        -1.129784
 H         3.689084        -1.126653         1.673907
 H         4.480365         0.573525         1.607737
 H         2.481898         1.248590         2.962195
 H         2.178399         2.908307         0.448596
