19
Iteration:  2796
 C        -0.032151        -0.278896         0.327076
 C         1.427225        -0.244465         0.062446
 C         2.313518        -0.920643        -0.836098
 C         3.409688         0.154030        -0.621792
 C         3.813738        -0.145905         0.864113
 C         2.370519         0.362310         1.290102
 O         1.814696         0.723926         2.513402
 C         2.193272         1.071991         0.029122
 O         1.657773         2.311483        -0.118580
 H        -0.142001        -0.532741         1.347450
 H        -0.387295         0.770103         0.132696
 H        -0.441976        -0.962634        -0.395315
 H         2.554345        -1.928137        -0.453543
 H         2.041579        -0.833214        -1.888699
 H         3.997363         0.370306        -1.513828
 H         4.039540        -1.304239         1.010073
 H         4.623959         0.439771         1.226630
 H         2.304744         1.402175         2.985219
 H         2.086830         2.994641         0.422976
