19
Iteration:  2583charge 0 multiplicity 1
 C        -0.106893        -0.425042         0.204321
 C         1.307950        -0.207085         0.168830
 C         2.281823        -0.941254        -0.720518
 C         3.281694         0.132413        -0.449081
 C         3.800104        -0.046400         0.954308
 C         2.415564         0.343439         1.261488
 O         1.955188         0.722130         2.528148
 C         2.162221         1.064598        -0.006095
 O         1.850167         2.438137        -0.264450
 H        -0.612953        -0.395960         1.220071
 H        -0.550340         0.242326        -0.518986
 H        -0.205705        -1.490980        -0.055484
 H         2.694201        -1.914663        -0.413404
 H         1.985517        -0.966761        -1.813080
 H         4.008522         0.202507        -1.317898
 H         4.234587        -1.056921         1.273041
 H         4.467655         0.669145         1.294505
 H         2.345707         1.574659         2.740607
 H         1.236393         2.497265        -1.008706
