19
Iteration:  3967
 C        -0.072643        -0.214710         0.292648
 C         1.343585        -0.067888         0.065710
 C         2.068215        -0.396225        -1.182498
 C         3.277926         0.506026        -0.665393
 C         3.722791        -0.259004         0.759193
 C         2.371600         0.043564         1.230508
 O         2.059910        -0.055892         2.553534
 C         2.230341         1.144896         0.240811
 O         1.912732         2.547442         0.151019
 H        -0.506870         0.784535         0.526965
 H        -0.571901        -0.508447        -0.658104
 H        -0.402381        -0.805492         1.167856
 H         2.544206        -1.422720        -1.260951
 H         1.595542        -0.142496        -2.151907
 H         4.006712         0.852544        -1.365404
 H         4.216045        -1.240762         0.896341
 H         4.324832         0.590964         1.235757
 H         1.980675        -0.933102         2.953596
 H         2.152247         2.838649         1.069525
