19
Iteration:  1008
 C        -0.092043        -0.496089         0.323583
 C         1.397604        -0.181571         0.030040
 C         2.349321        -0.977465        -0.888223
 C         3.450677         0.015464        -0.426151
 C         3.663347        -0.072012         1.119183
 C         2.240341         0.419247         1.233816
 O         1.793129         0.826594         2.515058
 C         2.209379         1.080781        -0.065147
 O         1.989341         2.428212        -0.243752
 H        -0.376322         0.014104         1.231764
 H        -0.909545        -0.245566        -0.364955
 H        -0.124946        -1.582201         0.532929
 H         2.534427        -2.052863        -0.552408
 H         2.027679        -0.845713        -1.996984
 H         4.257628         0.276780        -1.115115
 H         3.816249        -0.954998         1.731562
 H         4.311282         0.721849         1.480584
 H         1.055804         1.476127         2.410746
 H         2.467002         2.629099        -1.051616
