19
Iteration:  1746charge 0 multiplicity 1
 C        -0.103448        -0.488195         0.261658
 C         1.363253        -0.243960         0.250104
 C         2.277409        -1.028155        -0.772210
 C         3.255586         0.139818        -0.524157
 C         3.804924        -0.032163         0.964120
 C         2.432964         0.526039         1.366424
 O         1.968808         0.971866         2.710409
 C         2.131434         1.060882        -0.024156
 O         1.866952         2.258833        -0.609028
 H        -0.574880         0.086884         1.055558
 H        -0.575176        -0.165682        -0.674326
 H        -0.223541        -1.531293         0.362767
 H         2.582875        -1.954584        -0.293436
 H         1.808706        -1.228540        -1.738372
 H         3.952291         0.463206        -1.354726
 H         4.242005        -1.064821         1.232239
 H         4.532008         0.789100         1.176669
 H         2.214836         0.214344         3.317351
 H         0.927548         2.471963        -0.399810
