19
Iteration:  3575charge 0 multiplicity 1
 C        -0.127375        -0.333893         0.299863
 C         1.295799        -0.096693         0.051448
 C         2.200794        -0.815212        -1.050180
 C         3.374206         0.300764        -0.678054
 C         3.793676        -0.111791         0.745425
 C         2.320784         0.148578         1.220601
 O         1.985412         0.431009         2.592696
 C         2.249478         1.164193         0.064433
 O         1.886188         2.507011         0.253826
 H        -0.729215         0.493175        -0.117155
 H        -0.491625        -1.274317        -0.239184
 H        -0.340750        -0.434476         1.342024
 H         2.471510        -1.901936        -1.003480
 H         1.760934        -0.620233        -2.061462
 H         4.209714         0.563149        -1.362873
 H         4.305492        -1.021060         0.813827
 H         4.459335         0.697658         1.216159
 H         1.989530        -0.375486         3.125110
 H         1.335385         2.766744        -0.510843
