19
Iteration:  1631charge 0 multiplicity 1
 C        -0.068101        -0.549491         0.479319
 C         1.344898        -0.204311         0.118090
 C         2.341757        -0.989738        -0.826385
 C         3.275977         0.161872        -0.522396
 C         3.773987         0.079945         1.035967
 C         2.314367         0.410321         1.351839
 O         1.850625         0.839533         2.602797
 C         2.101722         1.049882        -0.057528
 O         2.051101         2.380366        -0.569878
 H        -0.784895         0.280794         0.408968
 H        -0.558347        -1.357967        -0.141288
 H        -0.087608        -1.078006         1.485296
 H         2.483684        -2.000028        -0.428192
 H         1.970964        -0.990866        -1.847833
 H         3.893522         0.623205        -1.235297
 H         4.118726        -0.929350         1.424950
 H         4.551889         0.835037         1.255755
 H         1.923648         0.149949         3.312367
 H         1.251677         2.430696        -1.144755
