19
Iteration:  4218charge 0 multiplicity 1
 C        -0.192022        -0.183638         0.229579
 C         1.281136        -0.017309         0.069416
 C         2.134710        -0.398795        -1.189555
 C         3.309804         0.523271        -0.606520
 C         3.843432        -0.366880         0.595839
 C         2.434027        -0.010150         1.196477
 O         2.022677        -0.180374         2.511948
 C         2.198136         1.235713         0.289317
 O         1.892721         2.675823         0.372366
 H        -0.858128         0.508064        -0.360237
 H        -0.439986        -1.252806         0.067827
 H        -0.354624         0.015064         1.278001
 H         2.117914        -1.458185        -1.429026
 H         1.661907         0.100665        -2.028500
 H         3.944196         1.105880        -1.236607
 H         4.267578        -1.427520         0.483318
 H         4.616353         0.283951         0.955283
 H         1.994244        -1.172550         2.573554
 H         2.495047         2.944745         1.120657
