19
Iteration:  4188charge 0 multiplicity 1
 C        -0.029858        -0.150200         0.408989
 C         1.352302         0.086462        -0.015697
 C         2.238361        -0.315756        -1.286068
 C         3.314580         0.519733        -0.646481
 C         3.636601        -0.375393         0.632967
 C         2.347069         0.097027         1.214146
 O         1.964874        -0.207778         2.578396
 C         2.209515         1.199416         0.240867
 O         1.847182         2.499417         0.300095
 H        -0.681749         0.678598         0.835161
 H        -0.510056        -0.767390        -0.394391
 H        -0.002978        -0.838708         1.274812
 H         2.337646        -1.372644        -1.569122
 H         1.795885         0.275253        -2.105547
 H         4.066576         1.093862        -1.287095
 H         3.831722        -1.471769         0.642807
 H         4.612216         0.066194         1.141470
 H         2.422337        -1.042628         2.535154
 H         2.506125         2.936162         0.870390
