19
Iteration:  1029
 C        -0.061848        -0.534238         0.290550
 C         1.340649        -0.102327         0.027525
 C         2.278124        -0.866629        -0.810613
 C         3.430090         0.117072        -0.343568
 C         3.666194        -0.208669         1.172254
 C         2.303456         0.426781         1.379405
 O         1.835953         0.710073         2.587405
 C         2.243360         1.126436        -0.008747
 O         1.959929         2.467199        -0.531639
 H        -0.672589         0.097013         0.933601
 H        -0.687059        -0.557595        -0.642446
 H         0.017925        -1.578900         0.680299
 H         2.594121        -1.882581        -0.570015
 H         2.157424        -0.719169        -1.946614
 H         4.209687         0.391182        -1.006899
 H         3.780646        -1.335146         1.200027
 H         4.547524         0.229537         1.628669
 H         1.278088         1.520909         2.454321
 H         1.842225         2.475520        -1.527711
