19
Iteration:   538
 C         0.039881        -0.346430         0.365234
 C         1.424790        -0.108440         0.000216
 C         2.288671        -1.052091        -0.718543
 C         3.429324         0.006977        -0.442638
 C         3.782476        -0.108335         0.993544
 C         2.366195         0.396025         1.207706
 O         1.493573         0.848696         2.347955
 C         2.234318         1.098763        -0.090655
 O         1.978639         2.423522        -0.213520
 H        -0.536716         0.490204         0.850805
 H        -0.425826        -0.624510        -0.604686
 H         0.037763        -1.173896         1.120512
 H         2.435526        -2.150999        -0.246953
 H         2.112648        -1.054668        -1.788773
 H         4.345707         0.181021        -1.047505
 H         3.908417        -1.119298         1.352912
 H         4.560306         0.584066         1.340348
 H         1.595473         0.050267         2.970495
 H         1.815570         2.808908         0.677757
