19
Iteration:  4847charge 0 multiplicity 1
 C        -0.030963         0.172067         0.328664
 C         1.345706         0.169289        -0.113237
 C         2.079207        -0.057977        -1.436498
 C         3.337550         0.566165        -0.762183
 C         3.766317        -0.386512         0.434163
 C         2.455100        -0.155476         1.136014
 O         2.041691        -0.471900         2.378785
 C         2.275598         1.121859         0.475205
 O         1.750903         2.349579         0.976623
 H        -0.048261         0.198401         1.418210
 H        -0.504319         1.118809        -0.000842
 H        -0.639096        -0.700076         0.005914
 H         2.457985        -1.005587        -1.672104
 H         1.561019         0.661753        -2.149369
 H         4.225102         1.127941        -1.163079
 H         4.063326        -1.316825        -0.023657
 H         4.532494         0.089792         1.115486
 H         1.686290        -1.347707         2.399123
 H         1.446200         2.914748         0.241980
