19
Iteration:  1186charge 0 multiplicity 1
 C         0.028365        -0.652056         0.176522
 C         1.429669        -0.326645         0.211032
 C         2.366875        -0.923125        -0.946731
 C         3.361982         0.120780        -0.414272
 C         3.583569        -0.204377         1.150334
 C         2.223765         0.476011         1.328650
 O         1.879157         0.980221         2.634062
 C         2.266203         1.161335        -0.036297
 O         1.907966         2.408772        -0.513129
 H        -0.480239        -0.244531         1.061135
 H        -0.471390        -0.270559        -0.704971
 H        -0.130782        -1.734634         0.242362
 H         2.627419        -1.936502        -0.784360
 H         1.926425        -0.722363        -1.916848
 H         4.296814         0.535897        -0.865464
 H         3.548369        -1.253403         1.429410
 H         4.387806         0.286551         1.821181
 H         0.902919         1.233894         2.505619
 H         1.879965         3.038029         0.211648
