19
Iteration:  1956
 C        -0.033211        -0.338653         0.677913
 C         1.412362        -0.141163         0.240600
 C         2.402004        -0.971210        -0.732803
 C         3.390917         0.197605        -0.575819
 C         3.810716        -0.065290         0.970851
 C         2.332964         0.383450         1.272589
 O         1.726743         0.666519         2.533610
 C         2.261118         1.119269        -0.116427
 O         1.784274         2.247638        -0.658002
 H        -0.041724         0.527563         1.398305
 H        -0.989162        -0.098266         0.079424
 H        -0.248906        -1.138865         1.383685
 H         2.716710        -2.012444        -0.462276
 H         1.912812        -1.077443        -1.721233
 H         4.244958         0.546971        -1.220096
 H         4.121175        -1.061017         1.258373
 H         4.511303         0.704167         1.233158
 H         2.017011         1.572273         2.726014
 H         0.855091         2.166296        -0.971034
