19
Iteration:  3538charge 0 multiplicity 1
 C        -0.283761        -0.268961         0.057325
 C         1.381379        -0.272998         0.169585
 C         2.224547        -0.805931        -1.005254
 C         3.320234         0.290549        -0.654955
 C         3.760865        -0.154545         0.716027
 C         2.411318         0.245987         1.331340
 O         2.107078         0.436094         2.661248
 C         2.209181         1.186898         0.118815
 O         1.806294         2.516224         0.173791
 H        -0.710254         0.510727         0.643113
 H        -0.551490        -0.306616        -0.985277
 H        -0.711882        -1.183754         0.565208
 H         2.576027        -1.833008        -0.955889
 H         1.869287        -0.603039        -2.007702
 H         4.126537         0.697768        -1.234939
 H         3.930058        -1.258596         0.748980
 H         4.549615         0.412950         1.221527
 H         2.805901        -0.017357         3.145155
 H         1.419622         2.663650        -0.701273
