19
Iteration:  1801
 C        -0.001711        -0.426858         0.628876
 C         1.401496        -0.202312         0.168683
 C         2.358889        -1.075414        -0.724606
 C         3.360805         0.129361        -0.539196
 C         3.749829         0.007543         0.917610
 C         2.324302         0.429069         1.266900
 O         1.754259         0.757914         2.531530
 C         2.147941         1.105628        -0.107740
 O         1.932073         2.392974        -0.498180
 H        -0.149657         0.070033         1.557373
 H        -0.788502        -0.235077        -0.118654
 H        -0.139892        -1.448264         0.912375
 H         2.517649        -2.127238        -0.512147
 H         1.898344        -1.051036        -1.719245
 H         4.106316         0.161781        -1.309720
 H         3.898955        -1.105100         1.048752
 H         4.504806         0.586981         1.397787
 H         1.928239         1.702586         2.725306
 H         1.344249         2.402521        -1.275493
