19
Iteration:  1005charge 0 multiplicity 1
 C        -0.080274        -0.481220         0.321924
 C         1.397373        -0.214227         0.047746
 C         2.351429        -0.984997        -0.877840
 C         3.467982        -0.008427        -0.443139
 C         3.636055        -0.026128         1.077466
 C         2.218869         0.416169         1.253189
 O         1.781292         0.836004         2.484255
 C         2.209853         1.063104        -0.046964
 O         2.002084         2.430671        -0.211919
 H        -0.383794         0.015196         1.287115
 H        -0.920179        -0.166408        -0.362035
 H        -0.122762        -1.573528         0.522552
 H         2.652341        -1.960399        -0.599787
 H         2.064314        -0.899297        -1.951215
 H         4.209865         0.236180        -1.103735
 H         3.842799        -0.997217         1.709257
 H         4.346211         0.733403         1.400335
 H         1.077479         1.447020         2.339070
 H         2.485229         2.700199        -1.014339
