19
Iteration:   829
 C         0.001618        -0.008524         0.407216
 C         1.423666        -0.111782         0.082695
 C         2.403216        -1.070329        -0.595419
 C         3.471394         0.128674        -0.420849
 C         3.759347         0.109997         1.000233
 C         2.244285         0.231118         1.350051
 O         1.659462         0.272355         2.578774
 C         2.190068         1.123081        -0.074551
 O         1.833981         2.387963        -0.738508
 H        -0.204614         1.107338         0.453225
 H        -0.712048        -0.511985        -0.281373
 H        -0.252097        -0.390948         1.408817
 H         2.880456        -1.969001        -0.048578
 H         2.386025        -1.391676        -1.731248
 H         4.227880         0.150072        -1.203121
 H         4.273911        -0.774976         1.420845
 H         4.210603         0.997344         1.388693
 H         1.704227         1.184330         2.881028
 H         1.856206         3.157584        -0.171595
