19
Iteration:   322charge 0 multiplicity 1
 C        -0.181755        -0.509449         0.331232
 C         1.259061        -0.183774        -0.019500
 C         2.356529        -0.992043        -0.805673
 C         3.394605         0.121400        -0.418866
 C         3.667036        -0.142530         1.060189
 C         2.233577         0.435075         1.293461
 O         1.754035         0.852329         2.579872
 C         2.141999         1.098445        -0.060848
 O         2.279539         2.426179        -0.407323
 H        -0.768283         0.391418         0.277382
 H        -0.573114        -1.162331        -0.416846
 H        -0.314274        -0.917898         1.322219
 H         2.608762        -2.033819        -0.529500
 H         2.183553        -0.923047        -1.962282
 H         4.218296         0.483855        -1.134703
 H         4.105501        -1.029505         1.477383
 H         4.333869         0.739907         1.307558
 H         1.982055         0.176767         3.238354
 H         1.438768         2.873090        -0.335766
