19
Iteration:  4178
 C        -0.076836        -0.185947         0.424993
 C         1.379692         0.053257        -0.064700
 C         2.116086        -0.285768        -1.301017
 C         3.340341         0.463851        -0.579063
 C         3.745048        -0.384678         0.608425
 C         2.473978         0.095282         1.231510
 O         1.915649        -0.184535         2.563362
 C         2.238717         1.233927         0.201277
 O         1.800302         2.508513         0.304807
 H        -0.529200         0.674555         1.000341
 H        -0.832259        -0.368153        -0.378825
 H         0.048013        -1.081390         1.046588
 H         2.335142        -1.344299        -1.562310
 H         1.818164         0.292818        -2.201698
 H         4.263361         1.063143        -0.889087
 H         3.749494        -1.449809         0.501976
 H         4.634426         0.090100         1.207517
 H         2.230648        -1.028563         2.908721
 H         2.416451         3.045584         0.799547
