19
Iteration:  3939
 C        -0.208296        -0.167723         0.167592
 C         1.318951        -0.066739         0.029694
 C         2.148397        -0.514971        -1.141665
 C         3.334180         0.400390        -0.687981
 C         3.860369        -0.276161         0.613675
 C         2.488120         0.156801         1.262721
 O         2.081881         0.048333         2.657115
 C         2.159157         1.149197         0.214639
 O         1.799103         2.516902         0.316144
 H        -0.467180         0.458618         1.039255
 H        -0.684581         0.373195        -0.662107
 H        -0.646037        -1.170013         0.371848
 H         2.461256        -1.558601        -1.189474
 H         1.812880        -0.237466        -2.149544
 H         4.041123         0.754144        -1.455976
 H         4.075221        -1.355045         0.602593
 H         4.746828         0.231081         1.064019
 H         1.347781        -0.564358         2.737714
 H         2.211304         2.816492         1.154040
