19
Iteration:  4571
 C        -0.046963        -0.286024         0.394209
 C         1.324192        -0.001747         0.013720
 C         2.108197        -0.079285        -1.356859
 C         3.256786         0.607008        -0.605485
 C         3.695111        -0.450090         0.482915
 C         2.392344         0.006157         1.100173
 O         1.944562        -0.293789         2.292390
 C         2.224881         1.276729         0.355049
 O         2.082630         2.560960         0.763110
 H        -0.091868        -1.097423         1.141931
 H        -0.683435         0.556376         0.556583
 H        -0.406830        -0.692949        -0.559412
 H         2.176915        -1.097860        -1.681159
 H         1.740925         0.513164        -2.198640
 H         4.034446         1.115737        -1.089768
 H         3.779258        -1.410829         0.048222
 H         4.651932        -0.225962         0.996632
 H         1.010244        -0.446002         2.150994
 H         2.109900         2.594545         1.734686
