19
Iteration:  1488charge 0 multiplicity 1
 C        -0.089927        -0.465068         0.194434
 C         1.426006        -0.212416         0.245164
 C         2.428339        -1.015575        -0.648125
 C         3.393289         0.127460        -0.482032
 C         3.753926        -0.064009         1.075722
 C         2.385987         0.497103         1.306703
 O         1.927696         0.879214         2.575582
 C         2.084421         1.089307        -0.073359
 O         1.685029         2.337597        -0.553429
 H        -0.709722        -0.142577         1.003011
 H        -0.528418         0.007528        -0.704969
 H        -0.255250        -1.550354         0.023703
 H         2.680585        -2.052660        -0.331302
 H         1.935670        -1.030916        -1.614503
 H         4.075918         0.262821        -1.246615
 H         4.004056        -1.149216         1.358043
 H         4.578864         0.597876         1.458973
 H         1.698841         0.063819         3.107233
 H         2.325879         3.026198        -0.264600
