19
Iteration:  4665
 C        -0.169540         0.249922         0.156542
 C         1.330439         0.000528        -0.113919
 C         2.123538        -0.121335        -1.360103
 C         3.280421         0.620352        -0.601461
 C         3.828730        -0.401168         0.444327
 C         2.394636        -0.124769         1.152705
 O         2.162530        -0.471832         2.530169
 C         2.260178         1.180380         0.469982
 O         1.736491         2.424994         0.701114
 H        -0.376439         1.349291         0.184871
 H        -0.887829        -0.324590        -0.453106
 H        -0.374614        -0.185463         1.180725
 H         2.406490        -1.246581        -1.463463
 H         1.667838         0.287578        -2.298039
 H         3.949122         1.272757        -1.217471
 H         4.065814        -1.449977         0.013693
 H         4.622834        -0.089152         1.086190
 H         2.141049        -1.466602         2.489248
 H         2.023323         2.699738         1.595153
