19
Iteration:  2505
 C        -0.047929        -0.572479         0.661178
 C         1.409288        -0.130364         0.113909
 C         2.376974        -0.924330        -0.873315
 C         3.427731         0.102692        -0.582918
 C         3.737865        -0.081254         0.963574
 C         2.308498         0.392049         1.255488
 O         1.595413         0.736574         2.431937
 C         2.218890         1.132308        -0.081985
 O         2.000059         2.459549        -0.288801
 H        -0.082595        -1.692400         0.424065
 H        -0.027818        -0.443813         1.744736
 H        -0.843968         0.040770         0.204326
 H         2.404330        -1.954889        -0.483230
 H         1.902467        -1.061315        -1.887091
 H         4.268386         0.198786        -1.300825
 H         4.087286        -1.127065         1.153386
 H         4.440254         0.652955         1.192444
 H         1.966126         1.556468         2.764539
 H         1.378652         2.646338        -1.006507
