19
Iteration:  3147
 C        -0.063086        -0.372350         0.288799
 C         1.321612        -0.207691         0.143564
 C         2.209550        -0.845181        -0.912317
 C         3.336958         0.245041        -0.640498
 C         3.778836        -0.152376         0.773260
 C         2.435434         0.333009         1.291510
 O         1.970729         0.571235         2.540156
 C         2.143098         1.132914         0.034498
 O         1.839419         2.428290        -0.055293
 H        -0.713725         0.559395         0.392431
 H        -0.540820        -1.002115        -0.585845
 H        -0.277310        -0.822409         1.280285
 H         2.437320        -1.907162        -0.634358
 H         1.706500        -0.638890        -1.876322
 H         4.073279         0.283202        -1.448562
 H         4.067118        -1.179373         1.067867
 H         4.575372         0.613900         1.044919
 H         2.697239         0.724958         3.162632
 H         1.264903         2.746113         0.663776
