19
Iteration:   454
 C        -0.091957        -0.497949         0.086898
 C         1.346258        -0.126029         0.075254
 C         2.273277        -0.962074        -0.703788
 C         3.369589         0.080122        -0.405909
 C         3.735464        -0.179578         1.056040
 C         2.396452         0.509759         1.381638
 O         1.764111         0.741874         2.667028
 C         2.212756         1.110747         0.015400
 O         2.082134         2.449946        -0.491657
 H        -0.564463        -0.079382         0.956202
 H        -0.747294        -0.200407        -0.723959
 H        -0.216210        -1.574378         0.057981
 H         2.424163        -1.924912        -0.383022
 H         2.110257        -0.978835        -1.792202
 H         4.136285         0.349950        -1.106450
 H         3.890614        -1.250152         1.282275
 H         4.565072         0.449979         1.478922
 H         1.036221         1.341889         2.597309
 H         1.135695         2.555263        -0.663941
