19
Iteration:  3242
 C        -0.119482        -0.475470         0.375142
 C         1.328507        -0.058270         0.184366
 C         2.146579        -0.772412        -0.909657
 C         3.255457         0.269574        -0.601417
 C         3.702158        -0.199070         0.808745
 C         2.395956         0.328302         1.291278
 O         2.115553         0.415424         2.592486
 C         2.225576         1.198528         0.081689
 O         1.914546         2.515467        -0.149365
 H        -0.597287        -0.637702        -0.590805
 H         0.026344        -1.500710         0.677796
 H        -0.770493         0.187258         0.983702
 H         2.553599        -1.794701        -0.885899
 H         1.724172        -0.398546        -1.875507
 H         3.942344         0.668625        -1.395549
 H         4.028911        -1.232947         0.809804
 H         4.653935         0.352722         1.237774
 H         1.177874         0.295856         2.883210
 H         1.771839         2.646659        -1.109991
