19
Iteration:  3267
 C        -0.152591        -0.462743         0.344404
 C         1.335325        -0.113624         0.186150
 C         2.123575        -0.742120        -0.923000
 C         3.290457         0.267843        -0.626190
 C         3.744657        -0.144788         0.794511
 C         2.411500         0.275611         1.350795
 O         2.097561         0.331804         2.709299
 C         2.150188         1.218622         0.086284
 O         1.992237         2.585607        -0.297983
 H        -0.500238        -0.930275        -0.526785
 H        -0.354027        -1.289100         1.097627
 H        -0.646183         0.451215         0.534391
 H         2.385090        -1.789823        -0.773271
 H         1.802006        -0.430807        -1.926741
 H         3.900228         0.689011        -1.406773
 H         4.214027        -1.168044         0.947353
 H         4.688487         0.516279         1.154266
 H         1.318165        -0.143640         3.067974
 H         1.133079         2.804897        -0.723792
