19
Iteration:   895charge 0 multiplicity 1
 C        -0.055758        -0.373009         0.258172
 C         1.455034        -0.051721         0.178619
 C         2.346466        -0.881218        -0.807947
 C         3.471628         0.239026        -0.435507
 C         3.743562        -0.218523         1.079082
 C         2.290304         0.266344         1.412549
 O         1.687820         0.717839         2.657694
 C         2.244305         1.173294        -0.003229
 O         1.785292         2.286067        -0.636153
 H        -0.624464         0.292503         0.988271
 H        -0.541199        -0.242495        -0.748064
 H        -0.156255        -1.451874         0.443678
 H         2.515733        -1.968586        -0.578518
 H         1.904311        -0.743866        -1.871846
 H         4.291359         0.230434        -1.139136
 H         3.916481        -1.300722         1.359689
 H         4.433935         0.337149         1.696149
 H         2.404025         1.269981         3.088412
 H         2.526137         2.637370        -1.193420
