19
Iteration:  1874charge 0 multiplicity 1
 C        -0.138537        -0.490263         0.303259
 C         1.328434        -0.277954         0.210421
 C         2.304355        -1.139098        -0.753218
 C         3.314830         0.103691        -0.536056
 C         3.786863        -0.014961         0.934011
 C         2.399631         0.468657         1.265231
 O         2.000957         0.982526         2.480665
 C         2.169816         1.031232        -0.043228
 O         1.822739         2.390459        -0.236900
 H        -0.804042         0.440769         0.388122
 H        -0.436045        -1.180748        -0.524359
 H        -0.383195        -1.048452         1.295241
 H         2.726436        -2.050022        -0.256097
 H         2.139623        -1.395601        -1.838774
 H         3.979148         0.311120        -1.458838
 H         3.959888        -1.105003         1.135810
 H         4.593325         0.639797         1.432638
 H         2.270674         1.879549         2.664650
 H         0.993402         2.344936        -0.730106
