19
Iteration:   575
 C        -0.156480        -0.185807         0.123764
 C         1.346007        -0.239239         0.135087
 C         2.441443        -1.037020        -0.767580
 C         3.461038         0.155057        -0.387462
 C         3.794889        -0.096372         1.086075
 C         2.274044         0.379671         1.306014
 O         1.873672         0.717569         2.574145
 C         2.125230         1.016970        -0.068479
 O         1.834389         2.319681        -0.393547
 H        -0.481469         0.827729         0.360353
 H        -0.574865        -0.522103        -0.835878
 H        -0.582839        -0.881515         0.883676
 H         2.610278        -2.125168        -0.591608
 H         2.232885        -0.889335        -1.858348
 H         4.270192         0.468392        -1.026162
 H         4.110323        -1.112286         1.340808
 H         4.538869         0.613034         1.500428
 H         0.976080         1.185369         2.524581
 H         2.336075         2.884188         0.253089
