19
Iteration:   659charge 0 multiplicity 1
 C        -0.002736        -0.168782         0.368277
 C         1.421031        -0.143488         0.094800
 C         2.468132        -0.990387        -0.753874
 C         3.446956         0.138872        -0.428537
 C         3.702035        -0.045617         1.076939
 C         2.234087         0.302193         1.307075
 O         1.663690         0.657047         2.596907
 C         2.209117         1.087133        -0.087732
 O         1.844274         2.297501        -0.630959
 H        -0.181338         0.343474         1.329157
 H        -0.671691         0.399599        -0.319377
 H        -0.362906        -1.221447         0.374338
 H         2.745307        -2.003810        -0.388764
 H         2.392476        -0.931558        -1.798469
 H         4.233867         0.311592        -1.112483
 H         4.084093        -1.014415         1.451493
 H         4.402630         0.776260         1.407149
 H         1.639001        -0.081484         3.191274
 H         2.037024         2.958564         0.042028
