19
Iteration:   237charge 0 multiplicity 1
 C        -0.084412        -0.301986         0.426859
 C         1.356164        -0.201235         0.040776
 C         2.351971        -1.007454        -0.835495
 C         3.479512         0.142524        -0.381205
 C         3.671841        -0.188913         1.105200
 C         2.230727         0.354029         1.213394
 O         1.876002         0.866923         2.417668
 C         2.195418         1.018817        -0.147973
 O         1.935409         2.403338        -0.252925
 H        -0.462262         0.404804         1.197490
 H        -0.778994        -0.265968        -0.448004
 H        -0.155226        -1.341331         0.919133
 H         2.551546        -2.037267        -0.522188
 H         2.186423        -0.742977        -1.918156
 H         4.347227         0.203147        -1.012863
 H         3.683250        -1.308997         1.247336
 H         4.330713         0.391844         1.742944
 H         0.957159         0.661916         2.748912
 H         2.147440         2.899302        -1.082136
