19
Iteration:  3871charge 0 multiplicity 1
 C        -0.091784        -0.235994         0.348979
 C         1.330899        -0.092386        -0.016972
 C         2.126535        -0.473979        -1.225790
 C         3.295785         0.399377        -0.582562
 C         3.806679        -0.267645         0.732656
 C         2.465387         0.160360         1.221813
 O         1.981025         0.233354         2.488985
 C         2.239047         1.098039         0.215674
 O         1.870276         2.421529         0.263093
 H        -0.354097        -1.311430         0.368854
 H        -0.419024         0.322933         1.271836
 H        -0.714023         0.096844        -0.466043
 H         2.191747        -1.556411        -1.371202
 H         1.653145        -0.066143        -2.122372
 H         3.930738         0.902630        -1.257116
 H         3.968185        -1.279735         0.473382
 H         4.766970         0.180902         1.211282
 H         1.598611        -0.569203         2.910868
 H         1.893492         2.713133         1.202022
