19
Iteration:    76charge 0 multiplicity 1
 C        -0.103186        -0.736288         0.405332
 C         1.271588        -0.224511        -0.024970
 C         2.290564        -0.930051        -0.771156
 C         3.407770         0.070291        -0.501046
 C         3.632662        -0.130981         1.055996
 C         2.201372         0.451733         1.207391
 O         1.776316         0.947312         2.390384
 C         2.268014         1.157264        -0.061231
 O         2.249969         2.528299        -0.157458
 H        -0.532338         0.156394         0.829204
 H        -0.822022        -1.126309        -0.284865
 H         0.018844        -1.357814         1.263413
 H         2.497479        -2.019186        -0.348376
 H         1.977476        -0.940824        -1.803458
 H         4.313169         0.080170        -1.079014
 H         3.752603        -1.167055         1.244995
 H         4.296665         0.536467         1.556903
 H         0.912402         0.526209         2.715486
 H         1.751982         2.803428        -0.978553
