19
Iteration:  3499
 C        -0.129757        -0.258850         0.320540
 C         1.358997        -0.133275         0.106306
 C         2.222117        -0.681920        -1.088364
 C         3.387302         0.278127        -0.535066
 C         3.772925        -0.221707         0.838127
 C         2.417695         0.236463         1.268260
 O         1.998344         0.393423         2.545412
 C         2.278987         1.189699         0.166508
 O         1.744457         2.417938        -0.012487
 H        -0.487245        -0.288187         1.397559
 H        -0.701685         0.664137        -0.011387
 H        -0.423042        -1.146484        -0.180902
 H         2.235167        -1.803865        -1.093537
 H         1.707638        -0.370469        -2.025535
 H         4.045954         0.641780        -1.343238
 H         3.961546        -1.284141         0.863638
 H         4.623419         0.459423         1.211301
 H         2.454100        -0.235284         3.156413
 H         1.204948         2.448528        -0.832171
