19
Iteration:  3316
 C        -0.073190        -0.134526         0.521244
 C         1.433812        -0.160709         0.132182
 C         2.275850        -0.850776        -1.005960
 C         3.322614         0.294970        -0.580457
 C         3.893155        -0.175418         0.754557
 C         2.396805         0.209248         1.229777
 O         1.824211         0.439874         2.485761
 C         2.189834         1.131907         0.042104
 O         1.715784         2.407414        -0.123889
 H        -0.676371        -0.966411        -0.035920
 H        -0.165644        -0.473165         1.534393
 H        -0.472497         0.943916         0.441674
 H         2.639401        -1.886449        -0.845946
 H         2.006188        -0.526958        -2.017414
 H         4.102683         0.624533        -1.318796
 H         4.359019        -1.173309         1.022372
 H         4.616829         0.392943         1.180774
 H         1.972801        -0.311377         3.081871
 H         1.901187         3.009653         0.610144
