19
Iteration:  2055charge 0 multiplicity 1
 C        -0.129570        -0.552702         0.229208
 C         1.357717        -0.247993         0.273891
 C         2.282944        -1.101617        -0.630857
 C         3.335854        -0.007713        -0.519390
 C         3.835426         0.022065         0.871195
 C         2.391495         0.471226         1.278042
 O         1.986442         1.072262         2.478211
 C         2.199184         0.999243        -0.159824
 O         1.802925         2.331810        -0.141568
 H        -0.631090         0.133591         0.966916
 H        -0.645564        -0.447379        -0.760745
 H        -0.370660        -1.529904         0.618483
 H         2.600010        -2.112384        -0.289348
 H         1.733568        -1.317250        -1.556024
 H         3.986809         0.324380        -1.424661
 H         4.147100        -0.950392         1.227283
 H         4.547573         0.814209         0.889290
 H         1.695463         2.007435         2.325562
 H         1.238059         2.597828        -0.908091
