19
Iteration:  3623charge 0 multiplicity 1
 C         0.008202        -0.398472         0.533729
 C         1.375668        -0.056897         0.078363
 C         2.221801        -0.586185        -1.136562
 C         3.395697         0.357078        -0.678429
 C         3.729629        -0.275296         0.722520
 C         2.377741         0.157588         1.229581
 O         1.832959         0.311458         2.521546
 C         2.268382         1.227855         0.199310
 O         1.880891         2.531701         0.085658
 H        -0.671887        -0.967881        -0.209057
 H         0.131826        -1.069658         1.391090
 H        -0.600522         0.525720         0.940617
 H         2.384535        -1.690998        -1.011897
 H         1.808086        -0.390812        -2.156186
 H         4.141085         0.757480        -1.382549
 H         3.993629        -1.395662         0.765349
 H         4.416196         0.264998         1.294133
 H         1.086696        -0.316588         2.691673
 H         1.570210         2.659931        -0.837216
