19
Iteration:  2858
 C        -0.102809        -0.108212         0.361611
 C         1.342607        -0.170473         0.162073
 C         2.407711        -0.857533        -0.996993
 C         3.365012         0.256611        -0.523988
 C         3.743643        -0.031096         0.934846
 C         2.341151         0.305521         1.412515
 O         2.051305         0.309619         2.802057
 C         2.168799         1.110757         0.029117
 O         1.665484         2.292842        -0.536289
 H        -0.747193         0.751243         0.690146
 H        -0.635997        -0.366131        -0.516400
 H        -0.566421        -0.967891         0.982819
 H         2.691141        -1.923216        -0.832207
 H         2.069014        -0.744074        -2.052341
 H         3.950049         0.624224        -1.352701
 H         3.978925        -1.084576         1.047726
 H         4.476482         0.666487         1.365943
 H         2.049769         1.239454         3.048128
 H         2.270197         3.049548        -0.607299
