19
Iteration:  4635charge 0 multiplicity 1
 C        -0.204799         0.168803         0.034118
 C         1.353640        -0.060956         0.071557
 C         2.038269        -0.111329        -1.256847
 C         3.263225         0.603298        -0.633284
 C         3.757924        -0.347328         0.487267
 C         2.448668        -0.122125         1.167177
 O         2.225486        -0.511562         2.495328
 C         2.267051         1.225012         0.420918
 O         1.800963         2.468160         0.704971
 H        -0.575650         1.003213         0.652093
 H        -0.537934         0.279040        -0.981883
 H        -0.785379        -0.730864         0.272726
 H         2.232566        -1.135648        -1.453434
 H         1.486354         0.448787        -2.044066
 H         3.965758         1.142359        -1.212303
 H         4.032577        -1.325683         0.086351
 H         4.523686         0.068958         1.125855
 H         1.735649        -1.367243         2.480232
 H         2.619914         2.987905         0.982066
