19
Iteration:  2544charge 0 multiplicity 1
 C         0.001518        -0.587359         0.562033
 C         1.398986        -0.203549         0.161430
 C         2.276006        -0.895909        -0.927300
 C         3.336001         0.136836        -0.531985
 C         3.702036        -0.141941         0.996002
 C         2.344648         0.453356         1.300854
 O         1.751556         0.675013         2.535025
 C         2.154465         1.180989        -0.087481
 O         2.001447         2.489417        -0.365238
 H        -0.011696        -1.289577         1.396195
 H        -0.663030         0.214009         0.969853
 H        -0.590813        -1.088934        -0.259122
 H         2.585228        -1.963100        -0.748415
 H         2.115457        -0.695740        -1.979140
 H         4.200728         0.228224        -1.169988
 H         3.849346        -1.180930         1.265506
 H         4.584796         0.580777         1.366665
 H         1.686675         1.653014         2.665470
 H         1.829477         2.577560        -1.334226
