19
Iteration:  3133
 C        -0.161219        -0.399823         0.334898
 C         1.369385        -0.123898         0.153830
 C         2.214318        -0.833065        -0.915848
 C         3.308971         0.177511        -0.614272
 C         3.777993        -0.120408         0.873573
 C         2.381941         0.250954         1.241526
 O         2.034427         0.509040         2.608912
 C         2.176912         1.159873         0.022510
 O         1.789040         2.497944        -0.201085
 H        -0.735160         0.456317         0.408597
 H        -0.464002        -0.833216        -0.620252
 H        -0.481708        -1.186306         1.085310
 H         2.522159        -1.859941        -0.875263
 H         1.812487        -0.679279        -1.918966
 H         3.977758         0.721857        -1.316550
 H         4.172866        -1.143980         0.985702
 H         4.629351         0.542101         1.435235
 H         2.916702         0.619362         2.995091
 H         1.849328         2.887094         0.711786
