19
Iteration:  2119
 C         0.039632        -0.397991         0.684926
 C         1.439195        -0.234846         0.194723
 C         2.337506        -1.014092        -0.806428
 C         3.379677         0.079269        -0.569585
 C         3.750065        -0.050488         0.948214
 C         2.325520         0.407263         1.250399
 O         1.692651         0.878234         2.399860
 C         2.222889         1.001859        -0.077283
 O         1.828632         2.365779        -0.379537
 H        -0.520672         0.553676         0.694397
 H        -0.543435        -1.077660         0.047112
 H        -0.003907        -0.824853         1.658718
 H         2.743954        -1.956565        -0.416448
 H         1.930196        -1.076699        -1.838045
 H         4.195728         0.610412        -1.095796
 H         4.016654        -1.232636         1.182688
 H         4.641947         0.518871         1.160818
 H         2.186514         1.731464         2.531233
 H         1.271053         2.330745        -1.183641
