19
Iteration:  2593charge 0 multiplicity 1
 C        -0.172221        -0.383235         0.181676
 C         1.384457        -0.234065         0.158711
 C         2.316358        -1.026708        -0.722857
 C         3.381516         0.084531        -0.502268
 C         3.840723        -0.018131         0.975239
 C         2.344729         0.382728         1.293310
 O         1.976762         0.724903         2.516085
 C         2.144542         1.087721        -0.025983
 O         1.805822         2.411898        -0.204239
 H        -0.705741         0.110869         1.035884
 H        -0.613089         0.090504        -0.677397
 H        -0.519718        -1.386260         0.052316
 H         2.450387        -2.078415        -0.485924
 H         1.846606        -0.927543        -1.730076
 H         4.005822         0.546675        -1.302017
 H         4.241220        -1.042777         1.313058
 H         4.525027         0.824516         1.152401
 H         2.487878         1.492934         2.781468
 H         1.083167         2.434186        -0.842878
