19
Iteration:   656
 C        -0.001343        -0.158377         0.351819
 C         1.414226        -0.123876         0.081582
 C         2.440539        -1.003124        -0.733961
 C         3.449927         0.145940        -0.429985
 C         3.704100        -0.050605         1.077251
 C         2.248625         0.327716         1.324315
 O         1.667954         0.645943         2.604623
 C         2.239314         1.074656        -0.085866
 O         1.815885         2.285029        -0.638632
 H        -0.261998         0.306696         1.324351
 H        -0.623392         0.339798        -0.404611
 H        -0.281510        -1.203995         0.375549
 H         2.746336        -1.962846        -0.445708
 H         2.351449        -0.921771        -1.855846
 H         4.332637         0.434079        -1.081665
 H         4.022230        -1.089879         1.455444
 H         4.388865         0.693257         1.512561
 H         1.768196        -0.106146         3.241361
 H         2.058796         3.035651        -0.043551
