19
Iteration:  2329
 C        -0.080937        -0.626887         0.499495
 C         1.309747        -0.228557         0.172955
 C         2.266302        -1.012063        -0.634883
 C         3.305846         0.096641        -0.519529
 C         3.758247         0.058006         0.941030
 C         2.363381         0.490080         1.249794
 O         1.891218         0.791370         2.567465
 C         2.092544         1.113972        -0.075292
 O         2.054285         2.458072        -0.525378
 H        -0.310166        -0.438990         1.562705
 H        -0.777609        -0.152872        -0.238092
 H        -0.136307        -1.690455         0.395399
 H         2.357486        -1.909461         0.024354
 H         1.877217        -1.267071        -1.653771
 H         4.091846         0.365500        -1.217558
 H         4.286966        -0.949385         1.354450
 H         4.424364         0.807348         1.180184
 H         0.980241         1.063053         2.391909
 H         2.102216         2.468694        -1.506511
