19
Iteration:  3554
 C        -0.166259        -0.313775         0.117829
 C         1.286404        -0.128076         0.055098
 C         2.238065        -0.745310        -0.925168
 C         3.264794         0.311285        -0.603923
 C         3.804932        -0.181887         0.800670
 C         2.444289         0.232114         1.241537
 O         2.094715         0.425597         2.538164
 C         2.090471         1.124848         0.140976
 O         1.869621         2.463969         0.214109
 H        -0.612298         0.733056         0.177546
 H        -0.540810        -0.795782        -0.880577
 H        -0.638354        -0.876039         0.905146
 H         2.596450        -1.807042        -0.747712
 H         1.725515        -0.694931        -1.923242
 H         3.875364         0.615763        -1.495346
 H         4.165009        -1.190660         0.929947
 H         4.603618         0.542043         1.147200
 H         2.686192        -0.144208         3.065492
 H         1.361429         2.764753        -0.547503
