19
Iteration:  3171
 C        -0.112504        -0.290435         0.431833
 C         1.386223        -0.196169         0.207133
 C         2.288162        -0.930371        -1.034101
 C         3.329669         0.244742        -0.722342
 C         3.901233        -0.174860         0.757710
 C         2.436669         0.190971         1.254853
 O         1.818981         0.640107         2.453972
 C         2.196723         1.116796         0.051213
 O         1.839530         2.456105         0.103450
 H        -0.872267         0.583954         0.180734
 H        -0.334199        -1.183258        -0.263247
 H        -0.312711        -0.510141         1.487190
 H         2.384871        -2.001400        -0.724040
 H         1.762680        -0.700219        -1.970948
 H         3.885864         0.560146        -1.591928
 H         4.153936        -1.221759         1.066443
 H         4.560728         0.531863         1.147116
 H         2.458350         1.302999         2.832083
 H         0.866504         2.538492         0.139150
