19
Iteration:  2403charge 0 multiplicity 1
 C        -0.027878        -0.265543         0.354976
 C         1.454328        -0.148868         0.235949
 C         2.316945        -1.009933        -0.714310
 C         3.448231         0.104468        -0.540995
 C         3.742576        -0.078154         0.935305
 C         2.362632         0.360831         1.368431
 O         1.896182         0.820625         2.582838
 C         2.300865         1.073178        -0.041904
 O         1.642378         2.216604        -0.451459
 H        -0.304017         0.826406         0.043272
 H        -0.413271        -0.940271        -0.476403
 H        -0.345262        -0.392127         1.381218
 H         2.767061        -2.032918        -0.630835
 H         1.867913        -0.860119        -1.738528
 H         4.266789         0.285677        -1.235978
 H         3.986492        -1.036505         1.305709
 H         4.647190         0.603052         1.314554
 H         1.101097         1.377377         2.357805
 H         0.839866         2.109003        -1.014718
