19
Iteration:  1352charge 0 multiplicity 1
 C        -0.124755        -0.478291         0.233765
 C         1.423812        -0.249036         0.188744
 C         2.375950        -0.942356        -0.744021
 C         3.403980         0.188871        -0.480728
 C         3.721831        -0.015105         1.014683
 C         2.272116         0.282241         1.312063
 O         1.858750         0.874944         2.536542
 C         2.247632         1.064791         0.014684
 O         1.927715         2.360469        -0.399502
 H        -0.736511         0.465221         0.169721
 H        -0.460237        -1.024913        -0.691120
 H        -0.401756        -1.186949         1.026694
 H         2.760120        -1.954080        -0.635211
 H         1.874953        -0.916054        -1.733320
 H         4.285155         0.393710        -1.139145
 H         4.161910        -0.990775         1.360976
 H         4.380848         0.735491         1.591266
 H         0.971791         1.205845         2.376708
 H         0.944845         2.269102        -0.416093
