19
Iteration:  3717
 C        -0.104711        -0.164401         0.230580
 C         1.353313        -0.127196         0.072610
 C         2.222459        -0.714390        -1.086186
 C         3.314103         0.284652        -0.684221
 C         3.778270        -0.236326         0.770134
 C         2.444604         0.211715         1.204955
 O         2.050987         0.357160         2.463600
 C         2.154129         1.117717         0.144466
 O         1.778448         2.433532         0.396961
 H        -0.393691        -0.063114         1.298338
 H        -0.550856         0.805356        -0.287877
 H        -0.507714        -1.104796        -0.134839
 H         2.500459        -1.747866        -1.142631
 H         1.905742        -0.328807        -2.054936
 H         4.138562         0.877183        -1.209154
 H         4.178515        -1.234204         0.811899
 H         4.608719         0.523791         1.232514
 H         1.950635        -0.531851         2.807515
 H         1.156185         2.655951        -0.327252
