19
Iteration:  2694charge 0 multiplicity 1
 C        -0.056774        -0.584179         0.531055
 C         1.358605        -0.101470         0.109519
 C         2.283425        -0.843179        -0.904786
 C         3.321032         0.204931        -0.531498
 C         3.701523        -0.101680         1.061887
 C         2.336376         0.359215         1.251267
 O         1.831070         0.538298         2.564093
 C         2.180428         1.145210        -0.044494
 O         2.037833         2.498658        -0.450435
 H        -0.653393        -0.929470        -0.323844
 H         0.078534        -1.342320         1.287956
 H        -0.662141         0.225469         1.029292
 H         2.542223        -1.904373        -0.782829
 H         1.929359        -0.720017        -1.948728
 H         4.079237         0.592405        -1.230282
 H         3.919121        -1.175209         1.567715
 H         4.429127         0.601558         1.445307
 H         2.000155         1.463039         2.867284
 H         1.145302         2.622014        -0.840935
