19
Iteration:  1380
 C        -0.051687        -0.418691         0.393065
 C         1.449935        -0.242073        -0.015190
 C         2.392750        -1.083364        -0.733558
 C         3.433156         0.068864        -0.479090
 C         3.764162         0.089948         1.067308
 C         2.314792         0.470008         1.207252
 O         1.747484         0.664804         2.521469
 C         2.145414         1.093257        -0.129027
 O         1.820757         2.453925        -0.264279
 H        -0.524207         0.544226         0.522558
 H        -0.665116        -0.926131        -0.328917
 H        -0.128125        -1.066809         1.268718
 H         2.658718        -2.092019        -0.318736
 H         2.141323        -1.347898        -1.761897
 H         4.264538         0.183436        -1.098747
 H         3.931999        -0.860963         1.567646
 H         4.487606         0.724430         1.454531
 H         1.259873         1.528230         2.530646
 H         2.293756         2.650922        -1.110520
