19
Iteration:  3702charge 0 multiplicity 1
 C        -0.150285        -0.181228         0.198798
 C         1.363275        -0.197813         0.048994
 C         2.167587        -0.666211        -1.100551
 C         3.278535         0.393020        -0.648246
 C         3.861264        -0.174362         0.779097
 C         2.440964         0.132280         1.224937
 O         2.020967         0.327051         2.585915
 C         2.202821         1.153168         0.133723
 O         1.869864         2.451136         0.287779
 H        -0.680644        -0.607186         1.114370
 H        -0.567786         0.832094        -0.048248
 H        -0.591339        -0.947987        -0.588520
 H         2.536663        -1.724372        -0.969118
 H         1.564591        -0.678677        -2.031567
 H         3.815753         0.700750        -1.514851
 H         4.038744        -1.279890         0.912378
 H         4.625467         0.507350         1.167277
 H         2.221587        -0.505085         3.087064
 H         1.025194         2.715451        -0.157972
