19
Iteration:  2292charge 0 multiplicity 1
 C        -0.041138        -0.592397         0.387778
 C         1.379820        -0.279066         0.232212
 C         2.254683        -1.029371        -0.710571
 C         3.375241         0.024620        -0.541355
 C         3.753283         0.007450         0.969496
 C         2.303090         0.408097         1.286784
 O         1.937431         1.014416         2.488554
 C         2.111609         1.042920        -0.107458
 O         1.942776         2.401635        -0.320500
 H        -0.434548        -0.500807         1.455388
 H        -0.729542         0.138812        -0.137478
 H        -0.368768        -1.602088         0.015561
 H         2.562974        -2.023312        -0.290155
 H         1.760153        -1.267490        -1.691386
 H         4.283541         0.223637        -1.166079
 H         4.311510        -0.845325         1.232103
 H         4.241046         1.046092         1.162672
 H         1.341439         1.748397         2.297345
 H         1.517594         2.415146        -1.194002
