19
Iteration:  4916charge 0 multiplicity 1
 C        -0.233354        -0.157117         0.148518
 C         1.290640         0.144228         0.019966
 C         2.006729         0.062866        -1.384474
 C         3.293700         0.683386        -0.610389
 C         3.770489        -0.399675         0.420365
 C         2.424539        -0.184263         1.083063
 O         2.097276        -0.620442         2.391552
 C         2.196488         1.310737         0.440927
 O         2.151516         2.556567         0.951197
 H        -0.868368         0.699046        -0.058915
 H        -0.590752        -0.925431        -0.563960
 H        -0.472716        -0.458325         1.177255
 H         2.085149        -0.941996        -1.686152
 H         1.486063         0.742164        -2.093512
 H         4.047813         1.171501        -1.189625
 H         3.892836        -1.463942         0.225328
 H         4.461888         0.050688         1.047504
 H         1.666933        -1.486116         2.441349
 H         1.541685         3.059553         0.407861
