19
Iteration:   529charge 0 multiplicity 1
 C        -0.013264        -0.442856         0.419507
 C         1.391257        -0.170067        -0.027372
 C         2.295179        -1.006013        -0.800743
 C         3.446784         0.065204        -0.451755
 C         3.806061        -0.140790         1.078591
 C         2.352974         0.445758         1.268095
 O         1.459119         0.855971         2.316122
 C         2.267106         1.073816        -0.111722
 O         2.039109         2.474041        -0.232605
 H        -0.436635         0.441961         0.938632
 H        -0.697815        -0.692061        -0.433495
 H        -0.175405        -1.340950         1.090898
 H         2.410149        -2.082463        -0.325546
 H         2.065655        -1.134628        -1.843209
 H         4.052541         0.210931        -1.307876
 H         4.000661        -1.182545         1.231504
 H         4.692542         0.417108         1.475999
 H         1.811496         0.435134         3.178939
 H         1.945801         2.733102         0.715478
