19
Iteration:  2727
 C        -0.048898        -0.728350         0.469518
 C         1.390983        -0.156616         0.183358
 C         2.185578        -0.897369        -0.809383
 C         3.216068         0.238710        -0.662816
 C         3.804383        -0.110918         0.918681
 C         2.392617         0.387533         1.318177
 O         1.654649         0.668600         2.506351
 C         2.203537         1.156896         0.004190
 O         2.161604         2.558604        -0.383301
 H        -0.098599        -1.617560        -0.105015
 H        -0.122679        -0.995691         1.485582
 H        -0.761740         0.052851         0.110109
 H         2.567609        -1.856185        -0.478200
 H         1.714397        -0.880322        -1.795318
 H         3.882166         0.614451        -1.441634
 H         4.025804        -1.194539         1.421240
 H         4.542558         0.582245         1.278809
 H         2.331071         1.045611         3.094933
 H         1.328484         2.914022        -0.038238
