19
Iteration:  4328charge 0 multiplicity 1
 C        -0.181613        -0.199315         0.209652
 C         1.388077        -0.073357         0.069943
 C         2.065963        -0.270353        -1.282310
 C         3.263358         0.491201        -0.692842
 C         3.818830        -0.381821         0.586439
 C         2.412364         0.086877         1.166291
 O         2.059767        -0.193075         2.449930
 C         2.273284         1.238968         0.286472
 O         1.874698         2.528398         0.644987
 H        -0.460704        -1.076901         0.860259
 H        -0.575182         0.689835         0.712452
 H        -0.677826        -0.444947        -0.711095
 H         2.409153        -1.289051        -1.596076
 H         1.653381         0.378817        -2.098086
 H         3.921432         1.001377        -1.468963
 H         3.989141        -1.485712         0.622578
 H         4.694116         0.013869         1.076973
 H         1.157521         0.150707         2.551993
 H         2.660945         2.940421         1.001934
