19
Iteration:  2230
 C         0.088875        -0.249300         0.440085
 C         1.491993        -0.203263         0.275510
 C         2.265696        -1.082143        -0.765809
 C         3.415931        -0.014464        -0.503660
 C         3.773895        -0.076674         0.997009
 C         2.430275         0.459363         1.297394
 O         1.759618         0.874835         2.407046
 C         2.276439         1.047912        -0.103332
 O         1.588722         2.275526        -0.365588
 H        -0.118873         0.359430         1.335889
 H        -0.424841         0.217570        -0.424274
 H        -0.222416        -1.239919         0.560478
 H         2.531102        -2.108056        -0.461408
 H         1.759636        -1.025988        -1.744267
 H         4.294353         0.220874        -1.171388
 H         4.518669        -0.967297         1.266002
 H         4.414009         0.698145         1.245486
 H         1.973976         1.735597         2.758785
 H         0.975049         2.095054        -1.105500
