19
Iteration:    28charge 0 multiplicity 1
 C        -0.136495        -0.631669         0.259123
 C         1.323971        -0.253704         0.172014
 C         2.230692        -0.925826        -0.775437
 C         3.368147         0.101062        -0.463853
 C         3.820037        -0.085290         1.004284
 C         2.293284         0.422803         1.303053
 O         1.706489         0.916325         2.528283
 C         2.232179         1.091509        -0.039112
 O         2.219019         2.415712        -0.366864
 H        -0.753100         0.263305         0.566306
 H        -0.390373        -0.659140        -0.827644
 H        -0.513056        -1.486477         0.901490
 H         2.457253        -1.908398        -0.309566
 H         1.999300        -0.902771        -1.862009
 H         4.049514         0.467964        -1.288582
 H         4.087952        -1.114531         1.404800
 H         4.405297         0.848398         1.186861
 H         0.802060         0.602996         2.460076
 H         1.678380         2.927170         0.234542
