19
Iteration:  1158
 C        -0.101558        -0.534711         0.146939
 C         1.347205        -0.150088         0.102671
 C         2.352906        -0.846662        -0.782799
 C         3.477728         0.082788        -0.377320
 C         3.818680        -0.073937         1.095114
 C         2.279338         0.348095         1.323446
 O         1.784658         0.979220         2.463978
 C         2.216598         1.046571        -0.041508
 O         1.838945         2.275570        -0.347382
 H        -0.634202         0.122876         0.865438
 H        -0.597170        -0.596245        -0.855068
 H        -0.205965        -1.520917         0.641194
 H         2.361820        -1.940175        -0.428133
 H         2.195332        -0.768676        -1.871408
 H         4.321722         0.348216        -0.931339
 H         4.061275        -1.109641         1.440901
 H         4.482829         0.603468         1.577851
 H         1.058373         0.365591         2.730859
 H         2.484186         2.934993        -0.069641
