19
Iteration:  2889
 C         0.000754        -0.250356         0.498002
 C         1.404022        -0.149452         0.206466
 C         2.244458        -0.785710        -0.853853
 C         3.390469         0.274912        -0.508057
 C         3.783930        -0.068032         0.938341
 C         2.398327         0.331008         1.303252
 O         1.839393         0.254778         2.557140
 C         2.187978         1.149424        -0.008262
 O         1.734942         2.368216        -0.537393
 H        -0.643413         0.610572         0.125345
 H        -0.425425        -1.180542         0.111041
 H        -0.117256        -0.401495         1.602902
 H         2.477394        -1.811886        -0.575658
 H         1.776071        -0.545265        -1.821071
 H         3.973177         0.588963        -1.373184
 H         3.966596        -1.050896         1.021103
 H         4.587730         0.615774         1.500476
 H         2.143451         1.033702         3.081253
 H         2.345052         3.105273        -0.337199
