19
Iteration:  3249
 C        -0.108823        -0.486331         0.355512
 C         1.286443        -0.044780         0.222999
 C         2.150366        -0.715789        -0.920287
 C         3.250894         0.311391        -0.587064
 C         3.738221        -0.177327         0.815132
 C         2.411384         0.313162         1.229817
 O         2.129272         0.392016         2.643638
 C         2.206383         1.205449         0.071992
 O         1.952057         2.507735        -0.180497
 H        -0.477162        -0.680024        -0.738368
 H        -0.169935        -1.469692         0.875410
 H        -0.855665         0.149645         0.904627
 H         2.480494        -1.789930        -0.841983
 H         1.425500        -0.675301        -1.756383
 H         4.015722         0.582245        -1.310993
 H         3.989475        -1.261367         0.903040
 H         4.483159         0.310419         1.286949
 H         1.179396         0.141997         2.698693
 H         1.625668         2.407343        -1.103244
