19
Iteration:   450charge 0 multiplicity 1
 C        -0.081843        -0.450859         0.075477
 C         1.360686        -0.126485         0.080876
 C         2.297097        -0.963567        -0.693391
 C         3.388116         0.114351        -0.405371
 C         3.748771        -0.176417         1.087417
 C         2.369747         0.478461         1.360198
 O         1.784575         0.722461         2.678955
 C         2.200372         1.112396        -0.015817
 O         2.057999         2.426501        -0.480071
 H        -0.602455        -0.022272         1.001002
 H        -0.772948        -0.121091        -0.748504
 H        -0.233641        -1.573423         0.090479
 H         2.417870        -2.057171        -0.292678
 H         1.901244        -0.940424        -1.710998
 H         4.105388         0.330467        -1.280981
 H         3.794686        -1.225290         1.386947
 H         4.579179         0.456650         1.459960
 H         1.004154         1.325566         2.460778
 H         1.145299         2.566142        -0.843759
