19
Iteration:   677
 C        -0.125511        -0.271769         0.452766
 C         1.379743        -0.337413         0.083578
 C         2.423875        -1.048787        -0.781842
 C         3.444521         0.127653        -0.445543
 C         3.766006         0.086716         1.083002
 C         2.297349         0.356960         1.274052
 O         1.659838         0.716583         2.429887
 C         2.198074         1.010890        -0.044595
 O         2.001631         2.392551        -0.492749
 H        -0.261373         0.180871         1.457752
 H        -0.570315         0.441357        -0.238434
 H        -0.723065        -1.171158         0.462491
 H         2.795521        -2.015431        -0.511010
 H         2.048530        -1.068464        -1.885221
 H         4.327623         0.527149        -1.045329
 H         4.283779        -0.815259         1.538330
 H         4.271419         0.969472         1.452052
 H         0.998966         0.076533         2.645384
 H         1.837575         3.004522         0.227715
