19
Iteration:   180charge 0 multiplicity 1
 C        -0.089984        -0.019058         0.001117
 C         1.402977        -0.163611         0.323719
 C         2.269437        -0.934806        -0.628743
 C         3.389463         0.117798        -0.518791
 C         3.787117        -0.080927         1.058702
 C         2.349988         0.418387         1.423109
 O         1.900949         0.570160         2.674579
 C         2.310472         1.101457         0.010098
 O         1.798001         2.217845        -0.656773
 H        -0.640614         0.513036         0.804071
 H        -0.318068         0.458618        -0.972692
 H        -0.666707        -0.982382        -0.084850
 H         2.561716        -1.933248        -0.263703
 H         1.747390        -1.222241        -1.641953
 H         4.225608         0.410103        -1.289764
 H         4.143889        -0.983158         1.560837
 H         4.537289         0.710700         1.353220
 H         1.412645        -0.229969         2.944727
 H         0.988591         2.348879        -0.156118
