19
Iteration:  4820charge 0 multiplicity 1
 C        -0.155292        -0.025904         0.247841
 C         1.331211         0.053518        -0.039173
 C         2.074879        -0.049172        -1.364701
 C         3.351017         0.605908        -0.646066
 C         3.764160        -0.419282         0.387723
 C         2.423547        -0.121204         1.090320
 O         2.006747        -0.374189         2.348706
 C         2.231824         1.202729         0.410356
 O         1.988187         2.472017         0.961058
 H        -0.289251        -0.656611         1.158084
 H        -0.592642         0.932166         0.553032
 H        -0.725930        -0.474575        -0.576382
 H         2.409301        -1.054776        -1.843779
 H         1.663129         0.697526        -2.003615
 H         4.150010         1.137603        -1.131741
 H         3.898135        -1.419671        -0.108203
 H         4.579421        -0.080826         1.029986
 H         1.908856        -1.312130         2.466901
 H         1.036531         2.656565         1.063896
