19
Iteration:  2168charge 0 multiplicity 1
 C        -0.058309        -0.455042         0.476200
 C         1.391899        -0.116554         0.193494
 C         2.254992        -1.046923        -0.641404
 C         3.295680         0.110755        -0.520778
 C         3.702642         0.080397         0.987675
 C         2.291605         0.546773         1.350884
 O         1.947005         0.550672         2.655100
 C         2.186453         1.127406        -0.127494
 O         1.937707         2.386099        -0.715250
 H        -0.661351         0.450089         0.612569
 H        -0.561443        -1.033816        -0.316795
 H        -0.165334        -1.032522         1.467826
 H         2.623614        -2.025135        -0.286437
 H         1.892984        -1.132802        -1.662982
 H         3.906058         0.186468        -1.434562
 H         4.108220        -0.831701         1.340381
 H         4.310546         0.981243         1.428496
 H         2.420188         1.096078         3.283117
 H         1.393910         2.363991        -1.528648
