19
Iteration:  2575
 C        -0.105686        -0.505283         0.258795
 C         1.374443        -0.139117         0.219560
 C         2.235429        -0.918806        -0.753487
 C         3.313804         0.187810        -0.556073
 C         3.773105        -0.099900         0.942373
 C         2.381255         0.346734         1.314788
 O         1.908846         0.719884         2.570199
 C         2.147279         1.094355        -0.011252
 O         1.902090         2.428480        -0.302759
 H        -0.380254        -0.590099         1.331677
 H        -0.751922         0.244615        -0.302677
 H        -0.150260        -1.493823        -0.334505
 H         2.636793        -1.901371        -0.367416
 H         2.113706        -1.079381        -1.821916
 H         4.167724         0.209254        -1.261214
 H         4.104941        -1.105753         1.206107
 H         4.439673         0.635119         1.343137
 H         2.166193         1.637269         2.680477
 H         1.440471         2.456005        -1.149697
