19
Iteration:  3952
 C        -0.116994        -0.139630         0.215098
 C         1.362284        -0.084937         0.097115
 C         2.162500        -0.557409        -1.222058
 C         3.266315         0.363905        -0.636576
 C         3.779670        -0.181160         0.649956
 C         2.375585        -0.001972         1.235429
 O         2.090622         0.009751         2.667330
 C         2.185822         1.236569         0.219489
 O         1.867891         2.569541         0.239656
 H        -0.533253         0.691230         0.792468
 H        -0.556025        -0.182909        -0.778479
 H        -0.424799        -1.140530         0.655467
 H         2.206923        -1.592638        -1.520231
 H         1.668836         0.057644        -1.967888
 H         3.999152         0.943759        -1.297269
 H         4.166336        -1.245443         0.532922
 H         4.465988         0.426396         1.104999
 H         1.603401        -0.858843         2.753143
 H         2.092565         2.967588         1.100246
