19
Iteration:   414charge 0 multiplicity 1
 C        -0.107744        -0.034614         0.160410
 C         1.429087        -0.304138         0.093686
 C         2.460053        -1.033219        -0.747811
 C         3.488098         0.042013        -0.395671
 C         3.713195        -0.021244         1.131821
 C         2.236362         0.360194         1.301020
 O         1.854948         0.660187         2.603555
 C         2.232959         1.096349        -0.009344
 O         1.735605         2.291876        -0.431816
 H        -0.132126         0.678890         1.016058
 H        -0.466436         0.490224        -0.760524
 H        -0.731297        -0.875679         0.513086
 H         2.674858        -2.193525        -0.607351
 H         2.138049        -0.948320        -1.867906
 H         4.303788         0.165287        -1.080993
 H         4.082437        -0.940331         1.647641
 H         4.449884         0.723082         1.363153
 H         0.866648         0.892284         2.516350
 H         2.138792         2.472998        -1.319319
