19
Iteration:  1063charge 0 multiplicity 1
 C        -0.010317        -0.315273         0.236121
 C         1.486695        -0.160631         0.234104
 C         2.325463        -0.845738        -0.830169
 C         3.420739         0.167593        -0.382417
 C         3.674788        -0.090084         1.095139
 C         2.287623         0.384884         1.413645
 O         1.686644         0.567150         2.676740
 C         2.279232         1.087960        -0.070910
 O         1.955323         2.342367        -0.676045
 H        -0.516919         0.575170         0.579261
 H        -0.369114        -0.719744        -0.721171
 H        -0.311115        -1.103819         0.985203
 H         2.664476        -1.904132        -0.747794
 H         1.815189        -0.721162        -1.855198
 H         4.134110         0.532986        -1.166623
 H         3.681429        -1.180987         1.254649
 H         4.504080         0.373941         1.658247
 H         1.782865         1.543106         2.923478
 H         0.977982         2.274844        -0.698082
