19
Iteration:  2519
 C         0.065646        -0.537367         0.706050
 C         1.325837        -0.156669         0.044259
 C         2.227467        -0.926751        -0.861780
 C         3.387682         0.163552        -0.473730
 C         3.741599        -0.085599         0.995114
 C         2.286490         0.383341         1.207980
 O         1.631254         0.670979         2.396790
 C         2.307885         1.144382        -0.099691
 O         2.011348         2.454753        -0.318395
 H         0.112280        -1.679781         0.924014
 H        -0.034720        -0.089358         1.715683
 H        -0.975670        -0.449522         0.182930
 H         2.626981        -1.970986        -0.772146
 H         2.188893        -0.655617        -1.922461
 H         4.188681         0.442689        -1.234545
 H         4.025767        -1.137153         1.334238
 H         4.321724         0.628672         1.448917
 H         1.789212         1.621844         2.608533
 H         1.558923         2.432747        -1.193702
