19
Iteration:  3442
 C        -0.069070        -0.415887         0.553062
 C         1.364867        -0.071051         0.100620
 C         2.245876        -0.724385        -0.998004
 C         3.359783         0.293488        -0.644179
 C         3.807145        -0.129099         0.850483
 C         2.374336         0.254962         1.281123
 O         1.887837         0.279157         2.527470
 C         2.152967         1.187597         0.013370
 O         1.967322         2.570345        -0.115330
 H        -0.019670        -1.491847         0.545580
 H        -0.448889         0.150889         1.494296
 H        -0.913672        -0.174993        -0.148880
 H         2.450183        -1.820054        -0.831828
 H         1.813996        -0.679409        -2.029699
 H         4.037739         0.551718        -1.444317
 H         4.130935        -1.108133         1.080906
 H         4.653614         0.613736         1.270861
 H         0.988733        -0.047053         2.461659
 H         1.006580         2.639028        -0.294385
