19
Iteration:  4851
 C        -0.056629         0.203622         0.318451
 C         1.365999         0.113262        -0.100652
 C         2.082784        -0.053910        -1.418925
 C         3.367161         0.568927        -0.706256
 C         3.770712        -0.367555         0.399216
 C         2.454079        -0.175497         1.113557
 O         2.053437        -0.483052         2.370843
 C         2.257396         1.150782         0.491555
 O         1.730252         2.362529         0.961075
 H         0.008012         0.287155         1.413308
 H        -0.588455         1.093973        -0.113624
 H        -0.668601        -0.705214         0.191268
 H         2.363310        -1.091724        -1.753821
 H         1.641982         0.630750        -2.139499
 H         4.170398         1.032345        -1.229135
 H         4.113842        -1.405792         0.043762
 H         4.552086         0.042602         0.969633
 H         1.648575        -1.402266         2.409772
 H         1.526168         3.109127         0.337991
