19
Iteration:   612
 C        -0.031870        -0.218369         0.008244
 C         1.465586        -0.125979         0.233293
 C         2.313877        -0.899649        -0.811777
 C         3.494276         0.118512        -0.363198
 C         3.714746        -0.180492         1.117906
 C         2.286642         0.345253         1.425527
 O         1.820798         0.663455         2.764516
 C         2.275901         1.104996         0.016894
 O         1.634724         2.281044        -0.624242
 H        -0.694552         0.637937         0.228110
 H        -0.221576        -0.383784        -1.053948
 H        -0.365316        -1.129079         0.506130
 H         2.402191        -1.929722        -0.832381
 H         1.752368        -0.550757        -1.696247
 H         4.317960         0.404750        -1.109185
 H         4.078788        -1.262423         1.195422
 H         4.456500         0.496251         1.547118
 H         2.550887         1.192410         3.164679
 H         2.390611         2.645534        -1.135601
