19
Iteration:  1528charge 0 multiplicity 1
 C        -0.100346        -0.257998         0.372033
 C         1.398776        -0.313649         0.217315
 C         2.380243        -1.075295        -0.707298
 C         3.444180         0.070942        -0.517035
 C         3.874891         0.122848         1.001532
 C         2.399034         0.341555         1.290747
 O         1.794763         0.907925         2.397236
 C         2.180627         0.926430        -0.084428
 O         1.779146         2.297478        -0.329383
 H        -0.454759         0.270741         1.313253
 H        -0.500803         0.213938        -0.577593
 H        -0.548941        -1.289695         0.529020
 H         2.813285        -2.047285        -0.448243
 H         2.200193        -0.950908        -1.796897
 H         4.194922         0.428963        -1.324124
 H         4.277468        -0.694648         1.578473
 H         4.387369         1.135551         1.266663
 H         0.923341         0.532947         2.336497
 H         0.802517         2.305706        -0.269619
