19
Iteration:  1275
 C        -0.042130        -0.261856         0.327540
 C         1.432844        -0.210100         0.082745
 C         2.437962        -1.058916        -0.675201
 C         3.435489         0.148621        -0.463866
 C         3.804667         0.033579         1.083637
 C         2.330412         0.358330         1.282209
 O         1.604813         0.668053         2.443833
 C         2.181120         1.092830        -0.050311
 O         1.796045         2.355531        -0.411315
 H        -0.202224         0.383201         1.214266
 H        -0.589955         0.125832        -0.527703
 H        -0.397709        -1.224535         0.648131
 H         2.779624        -1.902138        -0.163480
 H         2.328529        -1.195379        -1.727051
 H         4.155077         0.525979        -1.126786
 H         4.199815        -0.942365         1.324290
 H         4.406760         0.899196         1.473088
 H         2.097647         0.316673         3.237844
 H         2.028659         2.377214        -1.349771
