19
Iteration:  2760
 C        -0.118663        -0.548878         0.522959
 C         1.323997        -0.258341         0.103731
 C         2.315588        -0.854990        -0.853438
 C         3.444284         0.159803        -0.600572
 C         3.745016        -0.046567         0.933918
 C         2.301173         0.287391         1.175915
 O         1.762600         0.760085         2.464857
 C         2.221140         1.098180        -0.099971
 O         1.938970         2.477354        -0.202246
 H        -0.310789        -1.534062         0.872164
 H        -0.443915         0.078721         1.289537
 H        -0.905642        -0.457736        -0.258454
 H         2.514502        -1.922237        -0.781169
 H         2.028269        -0.715053        -1.895984
 H         4.164455         0.289494        -1.399997
 H         4.153620        -1.076043         1.368682
 H         4.376153         0.743788         1.327004
 H         2.576074         1.026649         2.903566
 H         2.024957         2.703924         0.741721
