19
Iteration:  1239charge 0 multiplicity 1
 C        -0.009992        -0.398560         0.383644
 C         1.396700        -0.211815         0.130984
 C         2.390931        -1.010280        -0.746139
 C         3.428428         0.110673        -0.422936
 C         3.761211         0.121931         1.055252
 C         2.287119         0.345914         1.295297
 O         1.554879         0.596600         2.489666
 C         2.210260         1.079091        -0.072884
 O         2.046264         2.389523        -0.502832
 H        -0.309391        -0.015697         1.372887
 H        -0.607637         0.241719        -0.296660
 H        -0.334553        -1.469682         0.238762
 H         2.646122        -2.012995        -0.471922
 H         1.908335        -0.854739        -1.748761
 H         4.182934         0.381188        -1.214692
 H         4.307659        -0.711807         1.593615
 H         4.205987         1.097899         1.423086
 H         1.894874         1.474359         2.836905
 H         1.111459         2.608958        -0.439738
