19
Iteration:   723
 C        -0.087739        -0.724706         0.192541
 C         1.384877        -0.177063         0.100748
 C         2.322799        -1.098211        -0.726182
 C         3.396766         0.029369        -0.501117
 C         3.710895        -0.144204         0.986230
 C         2.230112         0.377158         1.275852
 O         1.792714         1.152992         2.374611
 C         2.247013         1.138229        -0.015378
 O         2.010301         2.542633        -0.172778
 H        -0.684611        -0.572261         1.102402
 H        -0.657709        -0.406963        -0.689553
 H         0.033238        -1.810393         0.174779
 H         2.408449        -2.066167        -0.301694
 H         2.013183        -1.213482        -1.782978
 H         4.081021         0.152670        -1.291295
 H         4.071248        -1.168522         1.329530
 H         4.452202         0.600105         1.371849
 H         1.223145         0.620846         2.951865
 H         1.958663         2.924351         0.716033
