19
Iteration:  2174charge 0 multiplicity 1
 C        -0.041271        -0.417973         0.461789
 C         1.335173        -0.155835         0.195506
 C         2.292511        -1.030727        -0.633964
 C         3.291440         0.091591        -0.569069
 C         3.713885         0.153048         1.023730
 C         2.288055         0.470578         1.363292
 O         1.964444         0.550726         2.665777
 C         2.159938         1.124954        -0.089503
 O         1.949570         2.395457        -0.731908
 H        -0.642265         0.490561         0.669841
 H        -0.600867        -0.927561        -0.335487
 H        -0.206367        -0.991833         1.333083
 H         2.622630        -2.006675        -0.237989
 H         1.968327        -1.283892        -1.673266
 H         3.893583         0.367038        -1.470892
 H         3.909757        -1.001558         1.232405
 H         4.269349         0.913718         1.478265
 H         2.535155         1.254187         3.071912
 H         1.353627         2.191682        -1.465640
