19
Iteration:   148charge 0 multiplicity 1
 C        -0.068437        -0.001991         0.156109
 C         1.397801        -0.245545         0.086459
 C         2.368881        -0.999572        -0.759916
 C         3.472470         0.141967        -0.417933
 C         3.721280        -0.099938         1.168517
 C         2.280390         0.336934         1.347875
 O         1.900099         0.659777         2.687546
 C         2.219274         1.062463        -0.064639
 O         1.682737         2.258819        -0.645998
 H        -0.141085         0.608429         1.102794
 H        -0.487626         0.676951        -0.645709
 H        -0.710393        -0.929499         0.362125
 H         2.626647        -1.995644        -0.403720
 H         1.987822        -1.075409        -1.847780
 H         4.301466         0.433768        -1.176319
 H         3.929172        -1.114404         1.689524
 H         4.420825         0.699492         1.609373
 H         1.816199        -0.175214         3.244381
 H         2.423240         2.807465        -0.237687
