19
Iteration:  1341charge 0 multiplicity 1
 C        -0.048771        -0.504326         0.130276
 C         1.395485        -0.239888         0.218190
 C         2.346273        -0.931405        -0.837921
 C         3.409757         0.218930        -0.476471
 C         3.783710        -0.124492         1.052352
 C         2.302220         0.319308         1.413027
 O         1.849723         0.951005         2.597227
 C         2.247295         1.077839         0.070150
 O         1.858008         2.277837        -0.479210
 H        -0.676114         0.416905         0.291779
 H        -0.236910        -0.977545        -0.859528
 H        -0.388322        -1.096025         0.994123
 H         2.392222        -1.929883        -0.507255
 H         1.919804        -0.744693        -1.837838
 H         4.078712         0.490385        -1.324189
 H         4.085376        -1.177197         1.238364
 H         4.483623         0.735365         1.353146
 H         0.909959         1.099452         2.525871
 H         1.087416         2.702979        -0.024433
