19
Iteration:  3681charge 0 multiplicity 1
 C        -0.163155        -0.284394         0.169195
 C         1.352487        -0.052123         0.174889
 C         2.256382        -0.676739        -1.068783
 C         3.249048         0.327855        -0.600695
 C         3.782395        -0.200310         0.601776
 C         2.388798         0.131380         1.327498
 O         2.007049         0.267079         2.642214
 C         2.178947         1.172473         0.181096
 O         1.939074         2.517107         0.135312
 H        -0.379954        -1.195364         0.849434
 H        -0.743676         0.615679         0.638599
 H        -0.670658        -0.482416        -0.873730
 H         2.363844        -1.758067        -1.196475
 H         1.887788        -0.250851        -2.011385
 H         4.032987         0.735090        -1.229359
 H         4.368808        -1.139336         0.647830
 H         4.330333         0.690808         1.103905
 H         2.251905        -0.534590         3.094414
 H         1.090293         2.721399        -0.292126
