19
Iteration:  3403charge 0 multiplicity 1
 C        -0.114484        -0.495633         0.220417
 C         1.334953        -0.089448         0.204270
 C         2.193376        -0.808717        -1.015500
 C         3.208464         0.307940        -0.659552
 C         3.757056        -0.120521         0.855131
 C         2.390330         0.279411         1.299504
 O         2.143022         0.468851         2.663618
 C         2.092673         1.172956         0.104271
 O         1.977278         2.496808        -0.045379
 H        -0.261672        -1.451471        -0.418740
 H        -0.563318        -0.747466         1.134185
 H        -0.652352         0.271204        -0.341603
 H         2.619180        -1.812159        -0.966593
 H         1.569677        -0.695790        -1.897014
 H         3.984999         0.843126        -1.277609
 H         3.883795        -1.272302         1.014762
 H         4.459217         0.564768         1.146272
 H         1.326635         0.126738         3.096998
 H         1.575823         2.746513        -0.895180
