19
Iteration:  3975
 C        -0.136599        -0.239768         0.333046
 C         1.316174        -0.035652         0.066311
 C         2.118136        -0.377393        -1.188314
 C         3.306147         0.490806        -0.632973
 C         3.781034        -0.245812         0.747682
 C         2.404709         0.052322         1.185249
 O         2.006529        -0.057074         2.550045
 C         2.188594         1.217090         0.249541
 O         1.934578         2.488153         0.140117
 H        -0.471089         0.790897         0.414629
 H        -0.713812        -0.794171        -0.398060
 H        -0.326306        -0.706332         1.353839
 H         2.396858        -1.435202        -1.197962
 H         1.689835        -0.103048        -2.149793
 H         4.037329         1.040675        -1.328771
 H         3.996447        -1.349690         0.875758
 H         4.475351         0.325087         1.234837
 H         2.184283        -1.003857         2.614813
 H         2.137283         2.958784         0.989722
