19
Iteration:   323charge 0 multiplicity 1
 C        -0.177811        -0.500996         0.326702
 C         1.264971        -0.184487        -0.023954
 C         2.359642        -0.986033        -0.805108
 C         3.397284         0.116837        -0.420895
 C         3.665208        -0.142646         1.068694
 C         2.237732         0.446524         1.293248
 O         1.759740         0.846870         2.581973
 C         2.132240         1.098803        -0.056583
 O         2.270629         2.418506        -0.413102
 H        -0.777018         0.395425         0.286580
 H        -0.589472        -1.146010        -0.430506
 H        -0.318586        -0.892307         1.332902
 H         2.642848        -2.032698        -0.505320
 H         2.220059        -0.899992        -1.981751
 H         4.182983         0.429858        -1.148921
 H         4.082032        -1.046519         1.470877
 H         4.312915         0.720727         1.305265
 H         1.982546         0.151753         3.264511
 H         1.429830         2.877852        -0.316561
