19
Iteration:  2064
 C        -0.096239        -0.506030         0.298463
 C         1.361610        -0.263673         0.188386
 C         2.233080        -1.086346        -0.579977
 C         3.369249         0.012488        -0.642762
 C         3.830323        -0.016499         0.923245
 C         2.384448         0.424342         1.269570
 O         1.973981         1.090246         2.425978
 C         2.181663         0.994565        -0.121321
 O         1.770246         2.345379        -0.103653
 H        -0.614347         0.246256         0.895331
 H        -0.528531        -0.603053        -0.699323
 H        -0.108938        -1.461126         0.777426
 H         2.541802        -2.091439        -0.274425
 H         1.863531        -1.024481        -1.625434
 H         4.251297         0.008654        -1.299555
 H         4.493946        -0.925434         1.303380
 H         4.453222         0.805405         1.138695
 H         1.487442         1.906465         2.137264
 H         1.284625         2.440013        -0.958029
