19
Iteration:  4465charge 0 multiplicity 1
 C        -0.142797        -0.057155         0.161585
 C         1.322832         0.088214        -0.078116
 C         2.048914        -0.247774        -1.331566
 C         3.278068         0.505745        -0.630848
 C         3.837042        -0.388199         0.541423
 C         2.447750        -0.103024         1.041542
 O         2.090127        -0.126953         2.551240
 C         2.305561         1.171789         0.338873
 O         1.782725         2.439179         0.759402
 H        -0.570195         0.285705        -0.763316
 H        -0.493088        -1.085646         0.259577
 H        -0.493302         0.727489         0.863134
 H         2.197133        -1.300041        -1.610526
 H         1.585489         0.280671        -2.129985
 H         3.990316         1.013504        -1.207204
 H         4.070036        -1.407967         0.184012
 H         4.601092         0.127926         1.208443
 H         1.959476        -1.072346         2.716133
 H         2.222537         2.753470         1.591196
