19
Iteration:  3225
 C        -0.042893        -0.448973         0.438384
 C         1.330354        -0.146660         0.070535
 C         2.207698        -0.786141        -1.046181
 C         3.328976         0.184175        -0.614318
 C         3.754711        -0.201712         0.794337
 C         2.392441         0.276941         1.210796
 O         2.056369         0.512216         2.689768
 C         2.160722         1.185486         0.030902
 O         1.829956         2.570242        -0.035782
 H        -0.770412        -0.135863        -0.345274
 H        -0.323139        -1.525329         0.695848
 H        -0.286693         0.130292         1.331369
 H         2.297603        -1.867175        -0.834790
 H         1.687055        -0.673025        -2.018041
 H         4.102797         0.412023        -1.322192
 H         4.024526        -1.250129         1.065887
 H         4.581559         0.364655         1.217217
 H         1.072138         0.631776         2.667262
 H         2.057436         2.811064        -0.950600
