19
Iteration:   763
 C        -0.089264        -0.605930         0.183587
 C         1.327302        -0.277597         0.115866
 C         2.371396        -0.899773        -0.887482
 C         3.435982         0.086351        -0.404233
 C         3.600628        -0.186708         1.113580
 C         2.206123         0.274690         1.328980
 O         1.881177         1.197293         2.427542
 C         2.266570         1.028737        -0.010187
 O         1.868779         2.381174        -0.298959
 H        -0.743795         0.145318         0.665748
 H        -0.409281        -0.949362        -0.809627
 H        -0.147472        -1.501597         0.832083
 H         2.789350        -1.975278        -1.063382
 H         2.000304        -0.621811        -1.970012
 H         4.396092         0.390262        -0.935856
 H         3.915139        -1.215707         1.229410
 H         4.208928         0.507751         1.638321
 H         2.591001         1.077059         3.100391
 H         2.165400         2.834499         0.538273
