19
Iteration:   466charge 0 multiplicity 1
 C        -0.157478        -0.624262         0.200222
 C         1.305440        -0.106353         0.033824
 C         2.300038        -0.962387        -0.869963
 C         3.345974         0.046938        -0.386304
 C         3.667548        -0.150638         1.076782
 C         2.341099         0.540241         1.439340
 O         1.762868         0.774527         2.584760
 C         2.273800         1.138154         0.077433
 O         2.154397         2.453185        -0.486771
 H        -0.786543        -0.399558         1.021191
 H        -0.466641        -0.247528        -0.750151
 H        -0.038674        -1.685230         0.246148
 H         2.501407        -1.881861        -0.494821
 H         2.138933        -1.017502        -1.981072
 H         4.195576         0.284486        -0.942196
 H         3.905055        -1.207855         1.355135
 H         4.599115         0.458004         1.264294
 H         1.263701         1.659963         2.551118
 H         1.302221         2.791563        -0.122332
