19
Iteration:  1869charge 0 multiplicity 1
 C        -0.176471        -0.478513         0.332084
 C         1.382143        -0.255731         0.222207
 C         2.335633        -1.149160        -0.766518
 C         3.333488         0.065957        -0.586780
 C         3.761858         0.000601         0.950211
 C         2.388033         0.464763         1.269588
 O         1.989032         0.973689         2.478780
 C         2.147266         1.047523        -0.059682
 O         1.822610         2.373160        -0.216951
 H        -0.734403         0.411189         0.487793
 H        -0.498538        -1.147973        -0.449587
 H        -0.251777        -0.982375         1.257292
 H         2.741444        -2.120380        -0.448127
 H         2.070384        -1.295343        -1.808573
 H         4.113030         0.274946        -1.287771
 H         3.938634        -1.046573         1.160043
 H         4.552311         0.647435         1.393227
 H         2.173666         1.944248         2.578647
 H         1.047656         2.397615        -0.831274
