19
Iteration:   219
 C        -0.162474        -0.252321         0.257702
 C         1.390901        -0.199225         0.131191
 C         2.363231        -0.960107        -0.831301
 C         3.450045         0.023097        -0.494252
 C         3.684786        -0.145914         1.094769
 C         2.328475         0.398678         1.304940
 O         1.877690         0.789050         2.591962
 C         2.289390         1.089847        -0.005080
 O         1.847849         2.364661        -0.373061
 H        -0.338246         0.499861         1.047269
 H        -0.682362         0.182762        -0.629398
 H        -0.603040        -1.202583         0.544355
 H         2.639124        -2.023767        -0.605486
 H         1.992230        -0.957900        -1.811993
 H         4.186820         0.372946        -1.180476
 H         4.018063        -1.165512         1.481957
 H         4.451650         0.603290         1.363267
 H         0.955937         0.429908         2.735295
 H         1.844578         2.327841        -1.365865
