19
Iteration:  3297charge 0 multiplicity 1
 C        -0.079137        -0.268086         0.484653
 C         1.334852        -0.158653         0.099955
 C         2.209168        -0.741362        -0.984995
 C         3.363808         0.272691        -0.635213
 C         3.735109        -0.088915         0.870169
 C         2.431883         0.281256         1.246272
 O         1.979122         0.345566         2.590443
 C         2.169722         1.131136         0.061719
 O         1.877289         2.431934        -0.236891
 H        -0.597805        -0.870266        -0.265468
 H        -0.324395        -0.541026         1.533204
 H        -0.572296         0.760546         0.506527
 H         2.438491        -1.851647        -0.827462
 H         1.821890        -0.721592        -2.029716
 H         4.008087         0.734553        -1.419121
 H         4.187627        -1.045267         1.014765
 H         4.597618         0.623073         1.230164
 H         1.672589        -0.494056         3.007398
 H         1.287966         2.795905         0.449689
