19
Iteration:   297charge 0 multiplicity 1
 C        -0.079407        -0.635661         0.365781
 C         1.311542        -0.193467         0.193202
 C         2.182334        -0.911028        -0.755739
 C         3.338628         0.089977        -0.540313
 C         3.687009        -0.101197         1.038730
 C         2.287920         0.355705         1.282726
 O         1.616452         0.908073         2.306173
 C         2.233604         1.148565        -0.007604
 O         2.383714         2.468502        -0.253865
 H        -0.803362         0.205707         0.356347
 H        -0.278760        -1.304207        -0.485015
 H        -0.209546        -1.240813         1.271438
 H         2.447559        -1.965162        -0.599605
 H         1.896857        -0.851198        -1.772050
 H         3.983824         0.091432        -1.494776
 H         4.178541        -1.032151         1.492578
 H         4.349476         0.763337         1.387436
 H         1.561407         0.413570         3.184022
 H         1.540081         2.845774        -0.532880
