19
Iteration:  2939
 C        -0.034717        -0.449791         0.468003
 C         1.370189        -0.154773         0.101324
 C         2.340889        -0.917171        -0.910747
 C         3.352345         0.275951        -0.581955
 C         3.706065        -0.158653         0.907606
 C         2.349341         0.284132         1.187872
 O         1.837553         0.670600         2.455719
 C         2.145786         1.102378        -0.013417
 O         1.802970         2.446975        -0.132249
 H        -0.469830        -0.777579        -0.486540
 H        -0.043219        -1.322164         1.253045
 H        -0.611385         0.407495         0.848231
 H         2.598488        -1.993928        -0.725611
 H         1.797947        -0.583132        -1.811079
 H         4.185999         0.504465        -1.279240
 H         4.114855        -1.275174         1.202913
 H         4.563584         0.428951         1.138412
 H         2.661950         0.938939         2.912864
 H         2.379731         2.978701         0.432341
