19
Iteration:  4137
 C        -0.077716        -0.186497         0.279410
 C         1.401863        -0.011435         0.042555
 C         2.106791        -0.396853        -1.258615
 C         3.340508         0.507296        -0.635140
 C         3.745376        -0.287229         0.620286
 C         2.373574         0.040623         1.255347
 O         2.012159         0.000789         2.544800
 C         2.274338         1.161354         0.174933
 O         1.808097         2.446769         0.429910
 H        -0.269296        -0.313144         1.341203
 H        -0.619319         0.734746         0.056730
 H        -0.578784        -1.070807        -0.200991
 H         2.320596        -1.486899        -1.370429
 H         1.539688         0.061879        -2.103178
 H         4.134804         0.905786        -1.353434
 H         4.060724        -1.285339         0.221629
 H         4.623147         0.202746         1.073506
 H         1.479525        -0.843281         2.547225
 H         2.410571         2.964999         1.037558
