19
Iteration:  2801
 C        -0.048808        -0.252884         0.271035
 C         1.427357        -0.191702         0.126164
 C         2.324429        -0.928608        -0.853214
 C         3.410282         0.142060        -0.626989
 C         3.829818        -0.183388         0.837666
 C         2.400443         0.379247         1.329232
 O         1.808699         0.694352         2.555418
 C         2.220455         1.088508         0.001625
 O         1.625814         2.293530        -0.131789
 H        -0.146234        -0.440528         1.405885
 H        -0.452648         0.730958         0.014449
 H        -0.562270        -1.051783        -0.336151
 H         2.622348        -1.959422        -0.568829
 H         1.868593        -0.988215        -1.884727
 H         4.067529         0.362600        -1.492279
 H         4.168126        -1.139784         0.971217
 H         4.663532         0.471921         1.309040
 H         2.216708         1.476357         3.001569
 H         2.021603         3.055198         0.347155
