19
Iteration:  1105
 C        -0.061420        -0.079494         0.275619
 C         1.440392        -0.218777         0.118606
 C         2.482304        -1.099375        -0.640187
 C         3.478929         0.175919        -0.500211
 C         3.794574         0.090796         1.115636
 C         2.260144         0.332234         1.233915
 O         1.576162         0.583141         2.489762
 C         2.212211         1.000099        -0.169952
 O         1.835913         2.303928        -0.430966
 H        -0.261854         0.986441         0.508436
 H        -0.694877        -0.376112        -0.608481
 H        -0.435055        -0.736625         1.118077
 H         2.620123        -2.059097        -0.293994
 H         2.251416        -1.102943        -1.728928
 H         4.320827         0.421542        -1.128579
 H         4.161822        -0.936920         1.555353
 H         4.403704         0.956632         1.435907
 H         2.248893         0.388550         3.183703
 H         1.694203         2.810471         0.371283
