19
Iteration:  4499
 C        -0.302849        -0.245876         0.092784
 C         1.284735        -0.087756        -0.045009
 C         2.145115        -0.253388        -1.339654
 C         3.259632         0.567173        -0.627837
 C         3.708902        -0.333575         0.449838
 C         2.368784        -0.067285         1.125779
 O         2.085631        -0.122221         2.501468
 C         2.192800         1.293069         0.327235
 O         2.092906         2.539725         0.859344
 H        -0.529311        -0.637110        -0.869307
 H        -0.830336        -0.704925         0.967040
 H        -0.670700         0.800122         0.121093
 H         2.621137        -1.193239        -1.661901
 H         1.643947         0.268439        -2.150202
 H         4.076961         1.001912        -1.245806
 H         4.016078        -1.400981         0.238689
 H         4.546385         0.074866         1.083288
 H         2.484880        -0.948234         2.727837
 H         2.104277         2.549479         1.816431
