19
Iteration:  2177charge 0 multiplicity 1
 C        -0.062245        -0.392591         0.460569
 C         1.327663        -0.178150         0.201254
 C         2.309251        -1.028586        -0.634446
 C         3.295348         0.108031        -0.573623
 C         3.709459         0.151275         1.023236
 C         2.298793         0.425067         1.325873
 O         1.963307         0.559559         2.685166
 C         2.135667         1.130831        -0.078499
 O         1.952685         2.391089        -0.732896
 H        -0.605892         0.535263         0.690004
 H        -0.576473        -0.876652        -0.383264
 H        -0.210609        -1.043338         1.315648
 H         2.606143        -1.985788        -0.166339
 H         1.986635        -1.299163        -1.622395
 H         3.963342         0.466599        -1.426785
 H         3.907551        -0.937400         1.285683
 H         4.433380         0.911721         1.458617
 H         2.547739         1.292398         2.918016
 H         1.327101         2.106617        -1.432323
