19
Iteration:  1624charge 0 multiplicity 1
 C        -0.086502        -0.594324         0.449820
 C         1.364211        -0.212159         0.149489
 C         2.284802        -0.994653        -0.815238
 C         3.357555         0.148257        -0.515099
 C         3.719182         0.062238         1.029123
 C         2.278873         0.436603         1.316314
 O         1.866954         0.842323         2.646311
 C         2.126026         1.070068        -0.022226
 O         2.069537         2.384342        -0.622826
 H        -0.840086         0.223925         0.507807
 H        -0.417635        -1.365743        -0.199795
 H         0.042459        -1.014189         1.425087
 H         2.601786        -2.054664        -0.669769
 H         1.901390        -0.836944        -1.865473
 H         3.759559         0.639809        -1.532852
 H         4.171855        -0.930600         1.502441
 H         4.284371         0.898489         1.390608
 H         2.045889         0.231042         3.366755
 H         1.143951         2.570821        -0.843304
