19
Iteration:  1538
 C        -0.117486        -0.303287         0.450737
 C         1.446660        -0.392815         0.210955
 C         2.364405        -1.080362        -0.752108
 C         3.499977         0.124776        -0.408311
 C         3.848906         0.128758         1.047202
 C         2.364172         0.367748         1.213100
 O         1.798381         0.897735         2.332003
 C         2.192722         0.991561        -0.145275
 O         1.766972         2.295069        -0.267332
 H        -0.275775         0.542306         1.170472
 H        -0.654550         0.188212        -0.382666
 H        -0.777187        -1.164194         0.647546
 H         2.593764        -2.127412        -0.464801
 H         2.069369        -1.074256        -1.839429
 H         4.252595         0.382576        -1.278909
 H         4.283060        -0.763111         1.339057
 H         4.578197         0.932234         1.255070
 H         0.923392         0.564232         2.554273
 H         0.975985         2.367965        -0.860233
