19
Iteration:  4790
 C        -0.190183        -0.267802         0.076023
 C         1.266611         0.112276        -0.022877
 C         1.975014        -0.025397        -1.362827
 C         3.233437         0.688376        -0.613213
 C         3.700911        -0.388924         0.411619
 C         2.377969        -0.095299         1.160379
 O         2.030715        -0.376427         2.450631
 C         2.240907         1.222740         0.465506
 O         2.246393         2.535559         0.837764
 H        -0.057901        -1.311823         0.446092
 H        -0.840018         0.177411         0.817867
 H        -0.671763        -0.298135        -0.906875
 H         2.389690        -0.841112        -1.893037
 H         1.510282         0.513718        -2.213378
 H         4.068733         1.361022        -0.925501
 H         3.926992        -1.325247        -0.074776
 H         4.578379        -0.110737         1.102833
 H         1.746643        -1.326483         2.530533
 H         1.872657         2.620973         1.726266
