19
Iteration:   248charge 0 multiplicity 1
 C        -0.027617        -0.418425         0.468527
 C         1.359849        -0.156809         0.048423
 C         2.371765        -0.933927        -0.823289
 C         3.428826         0.052118        -0.398596
 C         3.582486        -0.247422         1.075076
 C         2.240949         0.312028         1.191707
 O         1.809070         0.938365         2.329185
 C         2.205569         1.097920        -0.144539
 O         2.001591         2.442896        -0.160287
 H        -0.289220         0.466545         1.083722
 H        -0.817236        -0.551294        -0.305527
 H        -0.044324        -1.353362         1.125927
 H         2.614681        -1.959513        -0.485350
 H         2.081947        -1.115681        -1.882949
 H         4.255428         0.425380        -0.942942
 H         3.944686        -1.249364         1.384520
 H         4.379391         0.405656         1.393906
 H         0.937497         0.683230         2.585998
 H         2.225762         2.665263        -1.100170
