19
Iteration:  2952charge 0 multiplicity 1
 C        -0.102432        -0.504615         0.362284
 C         1.376697        -0.242291         0.153079
 C         2.287014        -0.824378        -0.953568
 C         3.326357         0.206038        -0.577490
 C         3.719605        -0.140917         0.876520
 C         2.310792         0.293559         1.253205
 O         1.937798         0.744370         2.444381
 C         2.184647         1.115752        -0.037535
 O         1.854381         2.414958        -0.069678
 H        -0.614619        -1.146584        -0.381396
 H        -0.262216        -1.057557         1.357014
 H        -0.652824         0.397353         0.486398
 H         2.734619        -1.811873        -0.742372
 H         1.936957        -0.979750        -1.972241
 H         4.047661         0.686812        -1.220477
 H         3.993935        -1.275180         1.084566
 H         4.321391         0.654600         1.396557
 H         2.608146         1.303082         2.866539
 H         2.173726         2.813416         0.776896
