19
Iteration:  2159
 C        -0.088137        -0.476003         0.519540
 C         1.396166        -0.112160         0.238157
 C         2.232181        -1.021550        -0.643349
 C         3.340993         0.117464        -0.475053
 C         3.736967         0.014599         0.962019
 C         2.366060         0.579294         1.255259
 O         1.856542         0.557995         2.654342
 C         2.176802         1.161325        -0.194562
 O         1.918981         2.376301        -0.668918
 H        -0.734757         0.399095         0.569548
 H        -0.366816        -1.155437        -0.291962
 H        -0.079746        -1.067440         1.511930
 H         2.457788        -2.050749        -0.290480
 H         1.764814        -0.975407        -1.644789
 H         4.178021         0.237859        -1.124170
 H         4.172078        -0.742873         1.495579
 H         4.547857         0.823786         0.938607
 H         2.456020         1.060060         3.220079
 H         1.460574         2.339758        -1.530730
