19
Iteration:  3333charge 0 multiplicity 1
 C        -0.030740        -0.145773         0.483215
 C         1.439166        -0.161837         0.080715
 C         2.317814        -0.826983        -1.061602
 C         3.391025         0.199630        -0.723275
 C         3.799968        -0.183485         0.801650
 C         2.435982         0.230150         1.286119
 O         1.806381         0.548944         2.479628
 C         2.258177         1.081376         0.090032
 O         1.598504         2.386241         0.052035
 H        -0.620561        -0.817091        -0.091745
 H        -0.235487        -0.482795         1.540794
 H        -0.377309         0.813924         0.197229
 H         2.655911        -1.845068        -0.836525
 H         1.721719        -0.760658        -1.993885
 H         4.142184         0.569607        -1.385944
 H         3.996190        -1.274069         0.802588
 H         4.609516         0.630086         1.202464
 H         2.134863        -0.147692         3.082173
 H         2.345555         3.001137         0.068516
