19
Iteration:    83
 C        -0.053344        -0.621478         0.402035
 C         1.329811        -0.200435         0.061413
 C         2.284797        -0.972389        -0.757443
 C         3.403830         0.073847        -0.474636
 C         3.606004        -0.140367         1.000804
 C         2.259728         0.395524         1.226681
 O         1.720219         0.960103         2.363943
 C         2.282199         1.163628        -0.028197
 O         2.170431         2.498012        -0.175598
 H        -0.646952         0.170378         0.942831
 H        -0.714142        -1.105537        -0.370207
 H         0.062361        -1.464440         1.186545
 H         2.532607        -2.000047        -0.662925
 H         2.007482        -0.831321        -1.820623
 H         4.182601         0.263507        -1.285345
 H         3.692798        -1.207421         1.455616
 H         4.467631         0.399449         1.498012
 H         0.948711         0.343235         2.551378
 H         2.067347         2.714368        -1.105904
