19
Iteration:  4422charge 0 multiplicity 1
 C        -0.033948        -0.005641         0.380792
 C         1.442985         0.021614         0.012542
 C         2.060936        -0.262321        -1.410298
 C         3.343769         0.610407        -0.602930
 C         3.757659        -0.417838         0.554849
 C         2.433096        -0.044078         1.183543
 O         2.011738        -0.338786         2.428444
 C         2.264306         1.190483         0.356381
 O         1.735820         2.514694         0.519599
 H        -0.538447         0.948386         0.421961
 H        -0.479404        -0.623785        -0.388935
 H        -0.103327        -0.395815         1.407284
 H         2.252686        -1.288358        -1.499941
 H         1.634275         0.222166        -2.248529
 H         4.093657         1.245678        -1.024536
 H         4.056074        -1.464124         0.348999
 H         4.634266        -0.000623         1.068668
 H         1.139060        -0.776304         2.618373
 H         2.326678         3.153344         1.016213
