19
Iteration:  1693
 C        -0.014465        -0.226089         0.452153
 C         1.456532        -0.214322         0.118438
 C         2.419816        -1.098397        -0.726447
 C         3.453856        -0.024898        -0.553063
 C         3.813359         0.020116         0.991550
 C         2.412480         0.439656         1.240575
 O         1.855243         0.906019         2.457672
 C         2.181671         1.047094        -0.028622
 O         1.537687         2.205453        -0.374405
 H        -0.281837         0.714944         0.894847
 H        -0.661927        -0.361163        -0.448651
 H        -0.153598        -1.028268         1.161575
 H         2.481828        -2.161278        -0.406936
 H         2.079020        -1.046499        -1.758153
 H         4.148561         0.315077        -1.299655
 H         4.027887        -0.971926         1.421382
 H         4.670388         0.782421         1.204603
 H         0.907459         0.608652         2.549693
 H         2.011668         3.015204        -0.023128
