19
Iteration:  4899
 C        -0.153173         0.021662         0.163411
 C         1.280266         0.159460        -0.080815
 C         2.081743        -0.026593        -1.346038
 C         3.195301         0.664797        -0.656853
 C         3.736808        -0.350506         0.363307
 C         2.370651        -0.167346         1.144092
 O         2.136702        -0.662478         2.479135
 C         2.269923         1.164673         0.496013
 O         1.987834         2.552521         0.944435
 H        -0.661764         1.000579         0.426264
 H        -0.543458        -0.423606        -0.762586
 H        -0.420437        -0.683526         0.978272
 H         2.250146        -1.129395        -1.772324
 H         1.753104         0.703246        -2.102739
 H         3.973153         1.358133        -1.143659
 H         4.157481        -1.265380        -0.149436
 H         4.687057         0.047204         0.949665
 H         1.624426        -1.456641         2.350461
 H         2.018411         2.956664         0.065677
