19
Iteration:  3701
 C        -0.153557        -0.181672         0.197011
 C         1.355490        -0.202112         0.043638
 C         2.164933        -0.662480        -1.093396
 C         3.292413         0.391235        -0.657997
 C         3.867698        -0.164419         0.771618
 C         2.431289         0.123046         1.229829
 O         2.016476         0.324796         2.603207
 C         2.202272         1.151877         0.139793
 O         1.876107         2.461067         0.277877
 H        -0.694631        -0.648171         1.076323
 H        -0.544680         0.804202        -0.003710
 H        -0.572897        -0.937839        -0.593175
 H         2.544636        -1.731293        -0.968324
 H         1.551638        -0.672754        -2.023998
 H         3.810287         0.707746        -1.516916
 H         4.055848        -1.285878         0.871848
 H         4.600157         0.473954         1.140795
 H         2.232558        -0.487998         3.103014
 H         1.020654         2.708883        -0.157776
