19
Iteration:   845
 C        -0.094761         0.007022         0.450929
 C         1.409696        -0.139041         0.068427
 C         2.417330        -1.000789        -0.710559
 C         3.417228         0.181711        -0.412679
 C         3.737898         0.140650         1.176084
 C         2.268413         0.385202         1.321896
 O         1.729360         0.188952         2.638348
 C         2.228498         1.095437        -0.155101
 O         1.859094         2.248155        -0.790266
 H        -0.330760         1.042651         0.540718
 H        -0.780388        -0.384873        -0.293199
 H        -0.284616        -0.586341         1.359841
 H         2.531172        -1.946377        -0.216861
 H         2.129677        -1.043887        -1.734745
 H         4.217211         0.641465        -1.056185
 H         4.263082        -0.759690         1.505738
 H         4.379892         1.024315         1.463536
 H         1.522069         1.013190         3.036694
 H         2.517389         2.907749        -0.489238
