19
Iteration:  4185charge 0 multiplicity 1
 C        -0.048167        -0.148132         0.417839
 C         1.380953         0.088945        -0.033808
 C         2.201917        -0.310817        -1.287151
 C         3.320969         0.512708        -0.627884
 C         3.669955        -0.373528         0.613854
 C         2.394353         0.097646         1.215310
 O         1.942607        -0.199406         2.587305
 C         2.207291         1.195068         0.210170
 O         1.835362         2.494174         0.303120
 H        -0.677547         0.631691         0.900659
 H        -0.618727        -0.675918        -0.383946
 H         0.068967        -0.921646         1.185415
 H         2.321105        -1.350638        -1.545519
 H         1.843854         0.318282        -2.092253
 H         4.092796         1.081500        -1.066975
 H         3.781886        -1.533159         0.691265
 H         4.527594         0.052649         1.114634
 H         2.415285        -1.074575         2.593867
 H         2.464095         2.971936         0.838383
