19
Iteration:  3276charge 0 multiplicity 1
 C        -0.130691        -0.385044         0.360616
 C         1.305589        -0.108999         0.156271
 C         2.223942        -0.807876        -0.956596
 C         3.209762         0.238382        -0.547345
 C         3.778527        -0.110101         0.798307
 C         2.387150         0.278558         1.309391
 O         2.087396         0.332435         2.724148
 C         2.179392         1.199285         0.067148
 O         1.987989         2.589967        -0.297755
 H        -0.485209        -0.919463        -0.473316
 H        -0.221664        -0.967763         1.303155
 H        -0.853393         0.392817         0.591904
 H         2.469002        -1.837743        -1.234834
 H         1.630820        -0.495005        -1.830033
 H         3.904386         0.556292        -1.343264
 H         4.154720        -1.139398         0.782644
 H         4.587296         0.712325         1.181305
 H         1.376908        -0.344975         2.867690
 H         1.004080         2.608976        -0.340483
