19
Iteration:  3907charge 0 multiplicity 1
 C        -0.056525        -0.130518         0.219389
 C         1.403289        -0.085450         0.014397
 C         2.156071        -0.577531        -1.131014
 C         3.397110         0.343255        -0.688230
 C         3.792730        -0.323086         0.595411
 C         2.334016         0.031708         1.204780
 O         2.086069         0.236831         2.513902
 C         2.212865         1.232699         0.180822
 O         1.666401         2.459800         0.491999
 H        -0.196720        -0.477052         1.239424
 H        -0.589995         0.807058         0.155183
 H        -0.521896        -0.825307        -0.517983
 H         2.414299        -1.628297        -1.090634
 H         1.863673        -0.242690        -2.127979
 H         4.178429         0.617648        -1.421853
 H         4.029799        -1.397878         0.557126
 H         4.511793         0.129238         1.200463
 H         1.229035        -0.089364         2.877076
 H         2.367647         3.029690         0.875529
