19
Iteration:  4748charge 0 multiplicity 1
 C        -0.183279        -0.436766         0.162523
 C         1.294952         0.143955         0.019407
 C         2.096190        -0.058417        -1.406244
 C         3.284654         0.635190        -0.607862
 C         3.653984        -0.395965         0.453855
 C         2.315141        -0.130805         1.065693
 O         1.967959        -0.331547         2.355598
 C         2.259509         1.308524         0.416275
 O         2.228962         2.641010         0.937084
 H        -0.319644        -1.191274        -0.639930
 H        -0.395956        -1.015089         1.095875
 H        -0.932530         0.366919        -0.010012
 H         1.886392        -1.098677        -1.697743
 H         1.274909         0.619284        -1.961422
 H         4.155281         1.151746        -1.169271
 H         3.841049        -1.398679         0.162507
 H         4.465423         0.078247         1.119093
 H         1.404513        -1.097701         2.344930
 H         3.029059         2.806484         1.428570
