19
Iteration:   460charge 0 multiplicity 1
 C        -0.119332        -0.559416         0.125775
 C         1.323430        -0.118125         0.061564
 C         2.263049        -0.941187        -0.768396
 C         3.340290         0.036472        -0.399538
 C         3.705995        -0.167364         1.038343
 C         2.387666         0.539778         1.423281
 O         1.758413         0.759664         2.628150
 C         2.244513         1.120568         0.055988
 O         2.117803         2.465722        -0.499047
 H        -0.663206        -0.205065         1.071105
 H        -0.602562        -0.171889        -0.830688
 H        -0.135479        -1.692406         0.140385
 H         2.521114        -2.070570        -0.395551
 H         2.284819        -1.035854        -1.878140
 H         4.283057         0.383879        -0.954943
 H         3.989742        -1.212175         1.211462
 H         4.559359         0.399702         1.421221
 H         1.068007         1.458689         2.678863
 H         1.136424         2.591127        -0.401344
