19
Iteration:  1556charge 0 multiplicity 1
 C        -0.003252        -0.329739         0.472191
 C         1.424177        -0.252732         0.143961
 C         2.442647        -1.062919        -0.735266
 C         3.428686         0.073042        -0.544321
 C         3.750720        -0.008297         1.024010
 C         2.324360         0.377693         1.251031
 O         1.782566         0.959661         2.401171
 C         2.189133         1.004513        -0.091773
 O         1.712628         2.317560        -0.296080
 H        -0.318256         0.497562         1.115046
 H        -0.689426        -0.277415        -0.364927
 H        -0.182919        -1.287184         0.936586
 H         2.878684        -2.042816        -0.471223
 H         2.133909        -1.053939        -1.799200
 H         4.222093         0.330897        -1.280724
 H         4.143820        -0.959938         1.553951
 H         4.288080         0.829772         1.396308
 H         1.206433         0.266673         2.773726
 H         1.911078         2.619855        -1.211246
