19
Iteration:  4596charge 0 multiplicity 1
 C        -0.128616        -0.157880         0.270876
 C         1.257571         0.125028        -0.067235
 C         2.098210        -0.062703        -1.392844
 C         3.343048         0.637678        -0.679748
 C         3.763720        -0.443078         0.437371
 C         2.340982        -0.089324         1.180400
 O         2.044878        -0.435343         2.518486
 C         2.267639         1.263598         0.406185
 O         1.942630         2.541636         0.716931
 H        -0.140365        -0.361790         1.363954
 H        -0.802727         0.707516        -0.023304
 H        -0.455172        -1.085027        -0.293806
 H         2.280955        -1.227428        -1.546128
 H         1.659156         0.255796        -2.345657
 H         4.257399         0.971765        -1.230202
 H         4.034485        -1.451678         0.046556
 H         4.704054        -0.066652         0.982177
 H         1.109718        -0.649010         2.565787
 H         2.446798         2.878935         1.450220
