19
Iteration:   966charge 0 multiplicity 1
 C        -0.145739        -0.392853         0.295508
 C         1.316378        -0.229694         0.117709
 C         2.361566        -1.050368        -0.662637
 C         3.396564         0.115623        -0.546800
 C         3.854537         0.017583         1.016019
 C         2.354249         0.299715         1.267285
 O         1.577811         0.907196         2.199333
 C         2.205677         0.969409        -0.042292
 O         2.088654         2.353715         0.004225
 H        -0.459543        -0.187564         1.299555
 H        -0.675904         0.165199        -0.449613
 H        -0.343990        -1.432284         0.014105
 H         2.713718        -2.004112        -0.106080
 H         2.071501        -1.319212        -1.713938
 H         4.201296         0.425560        -1.393029
 H         4.245325        -0.950979         1.148313
 H         4.587865         0.811223         1.270944
 H         1.861624         1.877659         2.267502
 H         1.213933         2.656572        -0.358279
