19
Iteration:   368charge 0 multiplicity 1
 C        -0.016195        -0.065241         0.205399
 C         1.442118        -0.164816         0.239119
 C         2.400414        -0.882685        -0.701637
 C         3.484581         0.046395        -0.456235
 C         3.780215        -0.168426         1.066735
 C         2.330559         0.296772         1.394460
 O         1.689259         0.719159         2.560863
 C         2.322597         1.122808        -0.007448
 O         1.693561         2.250408        -0.635771
 H        -0.369409         0.950477         0.303179
 H        -0.330600        -0.454159        -0.770629
 H        -0.456902        -0.651773         1.017570
 H         2.581778        -1.982806        -0.500538
 H         1.945896        -0.776896        -1.783697
 H         4.293800         0.035032        -1.129884
 H         3.935941        -1.232652         1.266885
 H         4.506169         0.391478         1.618371
 H         1.156240        -0.063893         2.920598
 H         1.876301         3.025377        -0.064602
