19
Iteration:  3340charge 0 multiplicity 1
 C        -0.009765        -0.196904         0.394693
 C         1.464262        -0.165294         0.036234
 C         2.275481        -0.787889        -0.997040
 C         3.368510         0.190760        -0.713003
 C         3.800846        -0.164291         0.805000
 C         2.394389         0.251595         1.263768
 O         1.860858         0.589319         2.488250
 C         2.210014         1.071556         0.079462
 O         1.614515         2.349751         0.105487
 H        -0.680621        -0.921045        -0.101614
 H        -0.099987        -0.407955         1.484447
 H        -0.300435         0.932829         0.285523
 H         2.611477        -1.860890        -0.867966
 H         1.733517        -0.540706        -1.930235
 H         4.173592         0.413195        -1.450644
 H         4.048548        -1.204597         0.977276
 H         4.655610         0.223048         1.296164
 H         2.159955        -0.156547         3.080320
 H         2.234858         3.071466        -0.127446
