19
Iteration:   527
 C        -0.031219        -0.467053         0.426516
 C         1.374613        -0.175401        -0.013026
 C         2.311130        -0.996767        -0.822897
 C         3.446613         0.076242        -0.463294
 C         3.803650        -0.150502         1.098373
 C         2.338174         0.456156         1.271876
 O         1.465289         0.853903         2.310278
 C         2.275559         1.068755        -0.097918
 O         2.052665         2.483709        -0.239804
 H        -0.418810         0.461279         0.946155
 H        -0.769603        -0.691649        -0.388024
 H        -0.176728        -1.375150         1.071422
 H         2.438314        -2.106277        -0.343294
 H         2.056426        -1.152658        -1.873076
 H         4.053081         0.238454        -1.381733
 H         4.032364        -1.195608         1.245850
 H         4.676854         0.395055         1.482802
 H         1.812299         0.553139         3.178935
 H         1.980277         2.720642         0.691071
