19
Iteration:  1860charge 0 multiplicity 1
 C        -0.131829        -0.464628         0.435572
 C         1.427778        -0.245032         0.186012
 C         2.383022        -1.073267        -0.750030
 C         3.390846         0.027522        -0.618133
 C         3.724593        -0.055189         0.950126
 C         2.350968         0.436565         1.262067
 O         1.941441         0.957405         2.499765
 C         2.139822         1.033452        -0.124816
 O         1.792734         2.352712        -0.207040
 H        -0.656481         0.506481         0.472915
 H        -0.639236        -0.929705        -0.386434
 H        -0.304680        -1.066319         1.328874
 H         2.659078        -2.124595        -0.566096
 H         1.729778        -0.950233        -1.618050
 H         4.316301         0.248798        -1.206036
 H         4.110939        -0.935921         1.459292
 H         4.562053         0.816896         1.082955
 H         1.973651         1.920565         2.250129
 H         1.281171         2.609055        -1.014243
