19
Iteration:  1762
 C        -0.175661        -0.573813         0.349477
 C         1.328550        -0.139790         0.161591
 C         2.220260        -1.032172        -0.620154
 C         3.396855         0.088883        -0.490182
 C         3.805460         0.040791         0.923192
 C         2.391268         0.522630         1.376964
 O         1.944318         0.849372         2.626470
 C         2.148163         1.059664        -0.025793
 O         1.909488         2.352218        -0.630272
 H        -0.749891        -0.153644         1.225489
 H        -0.787940        -0.256138        -0.532714
 H        -0.111447        -1.719070         0.339085
 H         2.465762        -2.128418        -0.525967
 H         1.892617        -0.749070        -1.635762
 H         4.111847         0.301641        -1.314407
 H         4.015182        -0.919446         1.312081
 H         4.729159         0.742777         1.092953
 H         2.670117         0.598416         3.246859
 H         0.927586         2.445170        -0.680960
