19
Iteration:   951
 C        -0.112325        -0.441149         0.238728
 C         1.417377        -0.188432         0.097423
 C         2.362242        -1.053041        -0.682338
 C         3.437971         0.046941        -0.463719
 C         3.786016        -0.071093         0.931836
 C         2.277195         0.296715         1.255134
 O         1.623796         0.983653         2.294555
 C         2.276725         1.056704        -0.078951
 O         1.989225         2.382606        -0.068261
 H        -0.442480        -0.256942         1.285542
 H        -0.699161         0.232225        -0.432478
 H        -0.452057        -1.480305         0.091795
 H         2.584112        -2.050575        -0.246840
 H         2.106007        -1.172900        -1.814791
 H         4.107499         0.119216        -1.217232
 H         4.305190        -0.869679         1.492177
 H         4.206210         0.858510         1.222848
 H         2.268373         1.543057         2.692054
 H         1.065415         2.433512         0.293350
