19
Iteration:  3334
 C        -0.028623        -0.149282         0.473810
 C         1.445101        -0.158760         0.071485
 C         2.314740        -0.821493        -1.054184
 C         3.387376         0.194691        -0.727819
 C         3.798484        -0.175519         0.802601
 C         2.428957         0.232864         1.288147
 O         1.812494         0.555065         2.480081
 C         2.253453         1.072040         0.091767
 O         1.599238         2.383166         0.060674
 H        -0.649385        -0.848374        -0.086077
 H        -0.219751        -0.486107         1.515509
 H        -0.334477         0.809622         0.201741
 H         2.655309        -1.822038        -0.828175
 H         1.708200        -0.723178        -1.967810
 H         4.150158         0.545035        -1.397818
 H         3.998095        -1.310094         0.817917
 H         4.622560         0.587184         1.226629
 H         2.145872        -0.141663         3.055350
 H         2.329151         3.011203         0.035710
