19
Iteration:  3616charge 0 multiplicity 1
 C        -0.031693        -0.382488         0.550316
 C         1.448777        -0.064908         0.014064
 C         2.170719        -0.652905        -1.124361
 C         3.393653         0.407386        -0.617493
 C         3.783208        -0.289043         0.753842
 C         2.390386         0.173448         1.221681
 O         1.823942         0.335774         2.504608
 C         2.230573         1.211123         0.138630
 O         1.889245         2.517311         0.111674
 H        -0.612551        -0.781860        -0.230302
 H        -0.053465        -1.300187         1.216606
 H        -0.407758         0.441566         1.136874
 H         2.332845        -1.717746        -1.189736
 H         1.587964        -0.339733        -1.983758
 H         4.040227         0.815511        -1.361964
 H         4.068790        -1.348691         0.677442
 H         4.577045         0.260862         1.410418
 H         1.072799        -0.295026         2.570919
 H         1.563189         2.759050        -0.763639
