19
Iteration:  1047charge 0 multiplicity 1
 C        -0.022340        -0.472971         0.269902
 C         1.422038        -0.124484         0.219455
 C         2.385779        -0.863086        -0.802944
 C         3.410897         0.212908        -0.496387
 C         3.584589        -0.265728         1.074951
 C         2.284992         0.477356         1.346064
 O         1.748315         0.633213         2.684875
 C         2.263938         1.247686         0.062985
 O         1.992349         2.350777        -0.630733
 H        -0.720660         0.337453         0.680554
 H        -0.297291        -0.588329        -0.804369
 H        -0.221001        -1.364144         0.875611
 H         2.515056        -1.948651        -0.713522
 H         1.944047        -0.757768        -1.750094
 H         4.364737         0.434240        -0.965102
 H         3.658593        -1.408202         1.314280
 H         4.453015         0.271101         1.472997
 H         1.425202         1.553012         2.817743
 H         1.275324         2.162279        -1.308478
