19
Iteration:  3528
 C        -0.170152        -0.258396         0.137081
 C         1.379261        -0.192173         0.168108
 C         2.260873        -0.748273        -1.073249
 C         3.314945         0.284791        -0.637663
 C         3.745213        -0.229717         0.786786
 C         2.372033         0.203752         1.249790
 O         2.096673         0.449732         2.755517
 C         2.199615         1.132277         0.095571
 O         1.764399         2.494145         0.106396
 H        -0.699952         0.411925         0.778889
 H        -0.446344         0.087208        -0.937032
 H        -0.561365        -1.302379         0.111235
 H         2.478742        -1.814969        -0.986856
 H         1.624806        -0.577289        -1.949103
 H         3.870703         0.627662        -1.480730
 H         4.146695        -1.223707         0.879736
 H         4.599996         0.462002         1.107800
 H         2.807594        -0.017442         3.233464
 H         1.382980         2.906112        -0.668102
