19
Iteration:  1819charge 0 multiplicity 1
 C        -0.026536        -0.380368         0.699001
 C         1.358348        -0.234872         0.130398
 C         2.325386        -0.997958        -0.806311
 C         3.388252         0.100448        -0.564426
 C         3.836034        -0.109892         0.956982
 C         2.443805         0.507971         1.267855
 O         1.688925         0.795983         2.446608
 C         2.198714         1.005401        -0.095503
 O         1.832356         2.353796        -0.374338
 H        -0.156007         0.483309         1.451541
 H        -0.710078        -0.253071        -0.170086
 H        -0.209961        -1.390094         1.250874
 H         2.772462        -1.959502        -0.416446
 H         1.943536        -1.221795        -1.856563
 H         4.068460         0.576932        -1.389197
 H         4.148797        -0.998074         1.513219
 H         4.632735         0.652995         0.933355
 H         1.253021         1.663703         2.383207
 H         1.823338         2.329428        -1.342902
