19
Iteration:  4890
 C        -0.160270         0.088154         0.170479
 C         1.337880         0.081469        -0.055297
 C         2.078366        -0.038377        -1.361049
 C         3.228385         0.720336        -0.583584
 C         3.728441        -0.350256         0.362446
 C         2.430179        -0.137511         1.126569
 O         2.143852        -0.640921         2.419402
 C         2.259016         1.198915         0.508016
 O         1.922556         2.446405         0.915656
 H        -0.429271         1.061230         0.613581
 H        -0.818106         0.024119        -0.708353
 H        -0.462299        -0.688924         0.897561
 H         2.187717        -1.149734        -1.570272
 H         1.610822         0.546894        -2.236523
 H         4.058389         1.260415        -1.106667
 H         3.786447        -1.369045         0.025135
 H         4.608582         0.164637         0.883854
 H         1.638055        -1.448142         2.352645
 H         2.144853         2.897173         0.087174
