19
Iteration:  4455charge 0 multiplicity 1
 C        -0.157941         0.018695         0.197035
 C         1.344478         0.012209        -0.019842
 C         2.129220        -0.215193        -1.331373
 C         3.375951         0.504418        -0.705731
 C         3.804346        -0.412708         0.493873
 C         2.427971        -0.098119         1.180386
 O         2.086902        -0.150493         2.463759
 C         2.206674         1.191600         0.383497
 O         1.745358         2.436861         0.726277
 H        -0.711255         0.473062        -0.587126
 H        -0.463012        -1.024946         0.266277
 H        -0.490455         0.359403         1.181131
 H         2.207628        -1.252105        -1.568042
 H         1.741507         0.291453        -2.186734
 H         4.181545         0.987173        -1.223428
 H         4.180852        -1.441081         0.297942
 H         4.623589         0.160447         0.943149
 H         1.658741        -0.971167         2.686454
 H         2.387553         2.777936         1.369838
