19
Iteration:  3700
 C        -0.157063        -0.184380         0.194820
 C         1.348487        -0.204351         0.040639
 C         2.163354        -0.660824        -1.086713
 C         3.304087         0.388229        -0.666647
 C         3.871192        -0.157650         0.763229
 C         2.422102         0.115682         1.235090
 O         2.012647         0.322590         2.618025
 C         2.200862         1.149655         0.145675
 O         1.881363         2.470671         0.268873
 H        -0.697403        -0.677854         1.041286
 H        -0.528299         0.783430         0.035877
 H        -0.550706        -0.915378        -0.591495
 H         2.548689        -1.731262        -0.970410
 H         1.547862        -0.660378        -2.018003
 H         3.819080         0.722511        -1.525171
 H         4.077004        -1.280795         0.831496
 H         4.589976         0.454917         1.125948
 H         2.241554        -0.471986         3.115188
 H         1.022737         2.698823        -0.156460
