19
Iteration:  1295
 C        -0.037260        -0.343481         0.236991
 C         1.409783        -0.151826         0.050438
 C         2.450401        -0.986219        -0.724195
 C         3.500058         0.122658        -0.380700
 C         3.705535        -0.085732         1.094993
 C         2.251372         0.323540         1.278385
 O         1.835072         0.818046         2.559074
 C         2.240581         1.117709        -0.041366
 O         1.652605         2.338085        -0.462227
 H        -0.476320         0.441014         0.897670
 H        -0.497565        -0.370343        -0.759647
 H        -0.226281        -1.323125         0.723484
 H         2.700205        -1.938687        -0.393730
 H         2.038567        -1.097647        -1.728755
 H         4.311621         0.307354        -1.027818
 H         3.974913        -1.100394         1.453736
 H         4.274019         0.754571         1.609664
 H         1.815573         0.033570         3.161300
 H         2.227095         2.814577        -1.093763
