19
Iteration:  4003
 C        -0.043605        -0.265434         0.466677
 C         1.326644         0.029502        -0.036274
 C         2.204540        -0.427557        -1.267151
 C         3.312214         0.428069        -0.650817
 C         3.767012        -0.387814         0.635120
 C         2.493667         0.049438         1.276805
 O         1.837048        -0.047643         2.558128
 C         2.180769         1.240366         0.217004
 O         1.833463         2.670911         0.216809
 H        -0.737013         0.386492        -0.127210
 H        -0.344395        -1.335128         0.405816
 H        -0.069673        -0.023690         1.515284
 H         2.606797        -1.493448        -1.293768
 H         1.866895        -0.135614        -2.295042
 H         4.128563         0.785456        -1.270501
 H         3.971971        -1.458405         0.657764
 H         4.725310         0.188002         1.067944
 H         2.051143        -0.959383         2.838610
 H         2.367343         3.042092         0.984580
