19
Iteration:   647
 C        -0.056779        -0.161600         0.280169
 C         1.461332        -0.116507         0.072450
 C         2.366490        -0.987510        -0.749137
 C         3.491147         0.163414        -0.403313
 C         3.706451        -0.089569         1.126668
 C         2.312888         0.439346         1.360132
 O         1.694878         0.611091         2.599360
 C         2.306712         1.111984        -0.038381
 O         1.733201         2.242085        -0.650071
 H        -0.427412         0.272584         1.227727
 H        -0.545322         0.170280        -0.654031
 H        -0.280036        -1.238703         0.397371
 H         2.626349        -1.997344        -0.464185
 H         1.947746        -1.065912        -1.745583
 H         4.317334         0.563050        -0.977204
 H         3.840828        -1.190990         1.317187
 H         4.431488         0.519332         1.724118
 H         2.163891        -0.093453         3.119534
 H         2.205413         3.066483        -0.357816
