19
Iteration:  3407charge 0 multiplicity 1
 C        -0.136816        -0.507674         0.225175
 C         1.357571        -0.112253         0.208632
 C         2.185265        -0.800077        -1.024403
 C         3.209828         0.320583        -0.667140
 C         3.737688        -0.117918         0.864013
 C         2.368093         0.288860         1.288571
 O         2.131694         0.438547         2.653089
 C         2.133442         1.145331         0.123463
 O         1.996509         2.556844        -0.062947
 H        -0.275911        -1.478594        -0.217092
 H        -0.553015        -0.802718         1.258581
 H        -0.677049         0.325342        -0.356838
 H         2.639770        -1.802597        -0.823386
 H         1.594717        -0.666467        -1.946362
 H         3.945307         0.704886        -1.394776
 H         3.953463        -1.169302         1.152996
 H         4.566407         0.613281         1.155590
 H         1.296209         0.076183         2.955375
 H         1.413589         2.648400        -0.859035
