19
Iteration:  4061
 C        -0.163167        -0.242189         0.153837
 C         1.342833        -0.090998        -0.033396
 C         2.093012        -0.530821        -1.250206
 C         3.285833         0.451989        -0.655318
 C         3.846238        -0.283363         0.565765
 C         2.450834         0.024878         1.269349
 O         2.090621         0.122108         2.631827
 C         2.189990         1.136352         0.261508
 O         1.857986         2.565295         0.473955
 H        -0.635480        -0.974022        -0.488602
 H        -0.396235        -0.543233         1.172334
 H        -0.690485         0.734156        -0.100902
 H         2.323055        -1.562562        -1.535575
 H         1.727199         0.040267        -2.117719
 H         4.035917         0.980017        -1.392325
 H         4.072176        -1.405718         0.479936
 H         4.601632         0.184989         1.193985
 H         1.143643        -0.085986         2.757446
 H         2.302798         3.002261         1.193500
