19
Iteration:  1976
 C         0.123084        -0.295940         0.768181
 C         1.457041        -0.163541         0.210287
 C         2.315074        -1.002919        -0.739703
 C         3.403191         0.097748        -0.506833
 C         3.791173        -0.026314         0.999414
 C         2.403852         0.485905         1.241316
 O         1.692480         0.628270         2.492279
 C         2.176304         1.127046        -0.088723
 O         1.730132         2.319189        -0.681357
 H        -0.281538         0.164620         1.645432
 H        -0.456780         0.048722        -0.163292
 H        -0.204758        -1.347562         0.819590
 H         2.492264        -2.066032        -0.441056
 H         2.057467        -0.876796        -1.811298
 H         4.141533         0.308146        -1.243959
 H         4.019856        -1.130218         1.254146
 H         4.580439         0.539203         1.310337
 H         1.950775         1.442449         3.002058
 H         1.096915         2.065543        -1.392958
