19
Iteration:    65charge 0 multiplicity 1
 C        -0.143634        -0.761279         0.441033
 C         1.239640        -0.142944        -0.009621
 C         2.324896        -0.975178        -0.851137
 C         3.398035         0.072621        -0.443043
 C         3.598372        -0.132380         1.086356
 C         2.179032         0.390236         1.159654
 O         1.821159         0.954686         2.467141
 C         2.208347         1.149125        -0.184074
 O         2.327425         2.571010        -0.164057
 H        -0.849703        -0.006292         0.753450
 H        -0.596007        -1.254099        -0.409195
 H        -0.050941        -1.533664         1.171472
 H         2.509738        -1.990478        -0.253360
 H         2.192517        -1.282839        -1.876789
 H         4.210276         0.281200        -1.143917
 H         4.029356        -1.031896         1.486542
 H         4.282036         0.604036         1.440945
 H         0.895095         0.685131         2.775927
 H         1.557948         2.907656        -0.618535
