19
Iteration:    73charge 0 multiplicity 1
 C        -0.115686        -0.764586         0.413114
 C         1.252399        -0.213062        -0.036104
 C         2.303232        -0.932859        -0.790420
 C         3.401478         0.069508        -0.495492
 C         3.633806        -0.129968         1.075272
 C         2.187296         0.459456         1.190434
 O         1.788780         0.944445         2.410292
 C         2.254982         1.149015        -0.090198
 O         2.274875         2.543935        -0.156739
 H        -0.566820         0.187282         0.787492
 H        -0.847561        -1.149196        -0.330720
 H         0.004542        -1.415977         1.326052
 H         2.460585        -1.910283        -0.298688
 H         1.999218        -1.042460        -1.822675
 H         4.384595         0.058767        -1.063676
 H         3.834078        -1.242308         1.223859
 H         4.288180         0.631043         1.574722
 H         0.942303         0.606552         2.767737
 H         1.684957         2.803142        -0.854959
