19
Iteration:  2470charge 0 multiplicity 1
 C        -0.116247        -0.454615         0.292994
 C         1.398291        -0.194569         0.217850
 C         2.338223        -1.025941        -0.716099
 C         3.364880         0.103277        -0.577512
 C         3.775722        -0.000261         0.967652
 C         2.361222         0.352554         1.266534
 O         1.864939         0.824593         2.507788
 C         2.161956         1.065565        -0.093374
 O         1.833294         2.379266        -0.210522
 H        -0.344933        -0.938325        -0.701928
 H        -0.583639        -1.106519         1.062929
 H        -0.658524         0.461582         0.227531
 H         2.653512        -1.994490        -0.292195
 H         1.740710        -1.098882        -1.642568
 H         4.160017         0.344606        -1.252654
 H         4.206818        -0.953991         1.262855
 H         4.540866         0.810438         1.281425
 H         2.385209         1.610435         2.707140
 H         1.516780         2.423444        -1.126840
