19
Iteration:   750charge 0 multiplicity 1
 C        -0.102832        -0.739336         0.177194
 C         1.366738        -0.235900         0.098903
 C         2.405546        -0.888270        -0.857636
 C         3.429235         0.132701        -0.381865
 C         3.587879        -0.221329         1.119276
 C         2.210931         0.431209         1.257074
 O         1.922979         1.204672         2.345760
 C         2.115608         1.048629        -0.038039
 O         1.950220         2.331331        -0.190708
 H        -0.756429        -0.010643         0.731025
 H        -0.583743        -0.706139        -0.835763
 H        -0.208861        -1.766306         0.655213
 H         2.409435        -2.017294        -0.586145
 H         2.081026        -0.600228        -1.878409
 H         4.262122         0.375777        -1.150921
 H         3.613102        -1.231965         1.524911
 H         4.469519         0.319967         1.539545
 H         2.447716         0.842344         3.076955
 H         2.334213         2.873501         0.505760
