19
Iteration:  4911charge 0 multiplicity 1
 C        -0.210192        -0.095357         0.152002
 C         1.287239         0.181495        -0.001720
 C         2.026767         0.034090        -1.379856
 C         3.285987         0.652265        -0.632483
 C         3.772721        -0.392755         0.384672
 C         2.412392        -0.217867         1.128672
 O         2.110189        -0.640519         2.437118
 C         2.187104         1.281560         0.470809
 O         2.102636         2.565442         0.939183
 H        -0.878306         0.792197         0.035188
 H        -0.561226        -0.765552        -0.651722
 H        -0.404165        -0.595494         1.127402
 H         2.256891        -1.002050        -1.910216
 H         1.520643         0.668587        -2.168801
 H         3.909122         1.314367        -1.314228
 H         4.038371        -1.428282         0.044298
 H         4.479033         0.100263         1.185461
 H         1.635501        -1.496618         2.450710
 H         1.673201         3.236885         0.327360
