19
Iteration:  1592
 C        -0.077564        -0.630556         0.408702
 C         1.386802        -0.165346         0.222324
 C         2.283350        -0.926921        -0.722490
 C         3.386437         0.119262        -0.455563
 C         3.743760        -0.084919         1.068051
 C         2.399022         0.497862         1.310762
 O         1.827061         0.854609         2.504469
 C         2.143179         1.129840        -0.074897
 O         1.844834         2.371931        -0.644578
 H        -0.827788         0.137479         0.658095
 H        -0.283991        -1.174491        -0.483034
 H        -0.107901        -1.278379         1.271514
 H         2.618872        -1.972175        -0.568178
 H         1.937617        -0.855299        -1.790860
 H         4.000470         0.486192        -1.384301
 H         3.830104        -1.103453         1.433122
 H         4.562579         0.518241         1.430155
 H         2.196399         0.309961         3.228464
 H         2.335662         3.019462        -0.079332
