19
Iteration:  1120
 C         0.055375        -0.179768         0.254938
 C         1.481726        -0.307806         0.138030
 C         2.471364        -1.116397        -0.660919
 C         3.444231         0.098816        -0.444499
 C         3.688300         0.042883         0.990706
 C         2.248815         0.380315         1.246375
 O         1.561999         0.676223         2.453985
 C         2.192350         1.075758        -0.121420
 O         1.808208         2.404285        -0.339762
 H        -0.120520         0.873008         0.434440
 H        -0.380803        -0.279616        -0.719144
 H        -0.451586        -0.752406         1.031417
 H         3.015101        -1.954608        -0.054360
 H         2.087294        -1.459723        -1.662110
 H         4.208581         0.212339        -1.339810
 H         4.189048        -0.849033         1.312981
 H         4.274914         0.930989         1.379262
 H         2.034829         0.267402         3.153857
 H         2.414489         2.766862         0.356463
