19
Iteration:  1654charge 0 multiplicity 1
 C        -0.083665        -0.420544         0.517051
 C         1.400352        -0.219283         0.186229
 C         2.372479        -1.036821        -0.671181
 C         3.428540         0.113913        -0.542955
 C         3.812047         0.000734         0.937480
 C         2.369309         0.495221         1.259091
 O         1.771716         0.801652         2.423783
 C         2.174584         1.085077        -0.055120
 O         1.804449         2.380449        -0.399643
 H        -0.672524         0.531585         0.499931
 H        -0.655518        -1.120760        -0.118735
 H        -0.158646        -0.959732         1.501510
 H         2.694700        -2.033849        -0.297256
 H         2.001235        -1.072928        -1.708831
 H         3.979596         0.423277        -1.438625
 H         4.171569        -1.039680         1.342129
 H         4.462549         0.758049         1.327622
 H         1.437524        -0.003020         2.859188
 H         2.034699         2.367750        -1.353543
