19
Iteration:   224
 C        -0.163744        -0.270503         0.320646
 C         1.377269        -0.209003         0.075675
 C         2.370632        -0.986615        -0.802569
 C         3.471432         0.068050        -0.488008
 C         3.677197        -0.150496         1.122249
 C         2.306551         0.375382         1.255584
 O         1.884462         0.819337         2.575164
 C         2.282184         1.097919        -0.058027
 O         1.860343         2.367529        -0.334194
 H        -0.366700         0.504206         1.068833
 H        -0.719521         0.073567        -0.544609
 H        -0.612191        -1.244153         0.602803
 H         2.569382        -2.075280        -0.771745
 H         2.022780        -0.920746        -1.934519
 H         4.240385         0.334591        -1.299776
 H         3.886881        -1.143097         1.450512
 H         4.423604         0.483829         1.668457
 H         0.983870         0.463813         2.658196
 H         2.002541         2.413233        -1.283270
