19
Iteration:  2060
 C        -0.114328        -0.520663         0.255424
 C         1.352098        -0.270272         0.219161
 C         2.246641        -1.085128        -0.580372
 C         3.356215         0.000137        -0.595635
 C         3.826442        -0.007458         0.900343
 C         2.390826         0.449033         1.283831
 O         1.977778         1.086024         2.448887
 C         2.201602         0.996120        -0.156538
 O         1.782112         2.341114        -0.114547
 H        -0.583586         0.185188         0.933905
 H        -0.592028        -0.542106        -0.729598
 H        -0.186971        -1.551110         0.748074
 H         2.579119        -2.100507        -0.318689
 H         1.777815        -1.136780        -1.593186
 H         4.131617         0.186103        -1.309153
 H         4.389312        -0.934803         1.244229
 H         4.569620         0.870345         1.003178
 H         1.570533         1.939009         2.261874
 H         1.275218         2.485802        -0.924146
