19
Iteration:   771charge 0 multiplicity 1
 C        -0.089421        -0.538334         0.180526
 C         1.401547        -0.227875         0.133202
 C         2.319195        -0.965437        -0.918379
 C         3.438927         0.101014        -0.441669
 C         3.689137        -0.209751         1.122041
 C         2.239940         0.256459         1.350301
 O         1.799473         1.116833         2.488156
 C         2.280532         1.059334        -0.007253
 O         1.829207         2.371695        -0.363795
 H        -0.636448         0.417381         0.451192
 H        -0.542248        -0.851288        -0.789660
 H        -0.271345        -1.242825         1.065713
 H         2.856019        -1.966814        -0.933110
 H         2.023560        -0.643962        -1.885730
 H         4.417440         0.331747        -1.019233
 H         4.131085        -1.168626         1.514255
 H         4.412742         0.620359         1.489223
 H         2.553695         1.080787         3.154356
 H         1.826311         2.878973         0.499676
