19
Iteration:  4062
 C        -0.160178        -0.236210         0.149629
 C         1.343384        -0.091190        -0.028862
 C         2.098364        -0.534785        -1.250782
 C         3.270682         0.459317        -0.651932
 C         3.838257        -0.280137         0.566687
 C         2.463114         0.018737         1.266748
 O         2.092552         0.120805         2.636174
 C         2.188359         1.143066         0.249888
 O         1.861785         2.557116         0.475527
 H        -0.618447        -0.982389        -0.487918
 H        -0.401880        -0.521218         1.168362
 H        -0.703504         0.716805        -0.140811
 H         2.317118        -1.560421        -1.514458
 H         1.723415         0.039566        -2.101224
 H         4.049209         0.954887        -1.351416
 H         4.063242        -1.402836         0.483926
 H         4.562806         0.196522         1.158873
 H         1.153741        -0.067943         2.761069
 H         2.290387         2.993370         1.212810
