19
Iteration:  4031charge 0 multiplicity 1
 C        -0.076972        -0.272355         0.369324
 C         1.382011         0.045668         0.046114
 C         2.114402        -0.439367        -1.194010
 C         3.353417         0.461702        -0.603766
 C         3.680643        -0.319668         0.633048
 C         2.439691         0.067238         1.198222
 O         1.970652         0.066938         2.461961
 C         2.288947         1.174211         0.162584
 O         1.811724         2.507905         0.383562
 H        -0.582736        -0.490781        -0.569361
 H        -0.115652        -1.211394         0.949793
 H        -0.566266         0.499785         1.018012
 H         2.375207        -1.414286        -1.568728
 H         1.787905         0.145922        -2.049177
 H         4.182086         0.632949        -1.292998
 H         3.950489        -1.407698         0.649254
 H         4.403613         0.147347         1.204038
 H         1.576569        -0.842173         2.565327
 H         2.484321         3.099311         0.812535
