19
Iteration:  2288charge 0 multiplicity 1
 C        -0.041527        -0.574253         0.395680
 C         1.378611        -0.253660         0.217692
 C         2.269648        -1.060344        -0.725506
 C         3.394613         0.054317        -0.527595
 C         3.761407        -0.003961         0.968824
 C         2.269781         0.383203         1.284454
 O         1.944750         1.033421         2.460792
 C         2.095764         1.024400        -0.072586
 O         1.919702         2.389850        -0.314362
 H        -0.296242        -0.449716         1.425858
 H        -0.552840         0.203750        -0.127295
 H        -0.369780        -1.573663         0.034809
 H         2.707307        -1.999455        -0.370360
 H         1.831730        -1.254887        -1.679148
 H         4.193810         0.123694        -1.259508
 H         4.226076        -0.949249         1.346318
 H         4.274047         0.936934         1.151992
 H         1.395687         1.854419         2.373882
 H         1.424514         2.476175        -1.156253
