19
Iteration:  1400
 C         0.028208        -0.391870         0.516372
 C         1.450133        -0.121148         0.057799
 C         2.428376        -1.039471        -0.693489
 C         3.417956         0.104381        -0.482703
 C         3.751107        -0.032321         0.988542
 C         2.296404         0.403571         1.251861
 O         1.588814         0.616258         2.428659
 C         2.227692         1.114331        -0.075829
 O         1.796321         2.408420        -0.441570
 H        -0.423183         0.535116         0.762608
 H        -0.613153        -0.807272        -0.265713
 H         0.091704        -1.174404         1.267537
 H         2.529729        -2.018075        -0.164229
 H         2.242311        -1.359803        -1.718186
 H         4.130897         0.362970        -1.254553
 H         4.348708        -0.802609         1.460853
 H         4.358807         0.807879         1.222203
 H         1.725721         1.558423         2.725476
 H         2.431761         3.018794        -0.023675
