19
Iteration:  3573charge 0 multiplicity 1
 C        -0.133821        -0.319751         0.275970
 C         1.291508        -0.093257         0.067935
 C         2.191034        -0.817445        -1.048059
 C         3.359934         0.299481        -0.666977
 C         3.805676        -0.108895         0.748581
 C         2.323718         0.140489         1.217654
 O         1.996380         0.431216         2.597438
 C         2.247380         1.161827         0.046033
 O         1.880797         2.503133         0.252615
 H        -0.736726         0.440758        -0.129288
 H        -0.489199        -1.215159        -0.303686
 H        -0.261521        -0.522318         1.320550
 H         2.422678        -1.885307        -0.941616
 H         1.841837        -0.659243        -2.082588
 H         4.166585         0.622594        -1.306728
 H         4.305685        -1.042237         0.810072
 H         4.488654         0.686155         1.247755
 H         2.066876        -0.344618         3.167876
 H         1.338256         2.793376        -0.488507
