19
Iteration:   810
 C        -0.077808        -0.124890         0.317744
 C         1.465595        -0.172477         0.190496
 C         2.425063        -1.083747        -0.621450
 C         3.421328         0.141296        -0.494609
 C         3.808886        -0.025046         1.068090
 C         2.357189         0.445070         1.275244
 O         1.611142         0.461821         2.490849
 C         2.263853         1.115340        -0.112170
 O         1.809540         2.357491        -0.557240
 H        -0.388845         0.908042         0.305755
 H        -0.543121        -0.645965        -0.511655
 H        -0.469822        -0.502948         1.238638
 H         2.641472        -2.057637        -0.171542
 H         1.925121        -1.349591        -1.604092
 H         4.166354         0.327141        -1.200999
 H         4.097055        -0.997442         1.465874
 H         4.511920         0.748893         1.279809
 H         2.041262         1.041789         3.106284
 H         1.512296         2.833369         0.228734
