19
Iteration:    84
 C        -0.050026        -0.609984         0.406007
 C         1.336801        -0.193161         0.074613
 C         2.285754        -0.974294        -0.764760
 C         3.402367         0.074353        -0.473046
 C         3.608361        -0.145995         1.001573
 C         2.265404         0.391588         1.226290
 O         1.713198         0.960645         2.362704
 C         2.281561         1.159417        -0.029049
 O         2.161574         2.496257        -0.177302
 H        -0.655492         0.161053         0.937184
 H        -0.681611        -1.085254        -0.380545
 H         0.060578        -1.465885         1.161265
 H         2.538633        -2.023763        -0.680813
 H         2.016646        -0.832809        -1.805290
 H         4.159803         0.280650        -1.285131
 H         3.697787        -1.197322         1.455936
 H         4.464873         0.389421         1.475780
 H         0.945182         0.329117         2.553080
 H         2.101169         2.703393        -1.126110
