19
Iteration:  3788charge 0 multiplicity 1
 C        -0.167610        -0.372549         0.405058
 C         1.384263        -0.075789         0.085596
 C         2.193844        -0.546192        -1.169652
 C         3.322556         0.411248        -0.663114
 C         3.780141        -0.276785         0.689408
 C         2.365689         0.110542         1.282643
 O         1.914007         0.101967         2.609698
 C         2.272386         1.260192         0.171484
 O         2.019462         2.658118         0.121941
 H        -1.016431         0.160059        -0.091884
 H        -0.258339        -1.365928         0.035624
 H        -0.261774        -0.313077         1.551933
 H         2.451388        -1.647624        -1.237150
 H         1.498075        -0.230908        -1.970364
 H         3.829485         1.017098        -1.401181
 H         4.177139        -1.345988         0.911981
 H         4.400183         0.403175         1.138346
 H         1.428614        -0.714283         2.756869
 H         1.216709         2.719839        -0.430699
