19
Iteration:  3357
 C        -0.101541        -0.259541         0.325516
 C         1.402328        -0.154576         0.105806
 C         2.228728        -0.808117        -1.048790
 C         3.383744         0.210653        -0.547768
 C         3.795029        -0.246495         0.846834
 C         2.431448         0.250630         1.231775
 O         2.035935         0.652265         2.498836
 C         2.216555         1.078446         0.014136
 O         1.611701         2.408665         0.141176
 H        -0.392395        -1.078838        -0.409615
 H        -0.417684        -0.711823         1.269986
 H        -0.590988         0.614537         0.012826
 H         2.381550        -1.881755        -0.993065
 H         1.891885        -0.457195        -2.038126
 H         4.122853         0.605229        -1.256593
 H         4.055019        -1.377512         0.862057
 H         4.474472         0.597453         1.176818
 H         1.912522        -0.192174         3.017408
 H         2.121867         3.028128        -0.426217
