19
Iteration:  3108
 C        -0.114412        -0.379700         0.371538
 C         1.400916        -0.126723         0.138528
 C         2.254832        -0.749553        -0.906461
 C         3.346038         0.234601        -0.615333
 C         3.688529        -0.105869         0.836925
 C         2.380285         0.305877         1.289562
 O         2.012411         0.344264         2.680245
 C         2.107684         1.188254         0.098644
 O         1.773527         2.453277        -0.323522
 H        -0.671883         0.338233         1.055911
 H        -0.736965        -0.399779        -0.489527
 H        -0.216720        -1.388899         0.823312
 H         2.511349        -1.818617        -0.814874
 H         1.824930        -0.526295        -1.890771
 H         4.145924         0.551723        -1.320622
 H         4.030344        -1.172064         1.034086
 H         4.539984         0.494488         1.382484
 H         2.789055         0.849559         3.020979
 H         2.632250         2.872750        -0.495503
