19
Iteration:  2439
 C        -0.126680        -0.312558         0.162555
 C         1.377199        -0.221906         0.109726
 C         2.359600        -1.097641        -0.719002
 C         3.354682         0.077794        -0.502874
 C         3.820946         0.056159         1.024663
 C         2.400142         0.376030         1.315193
 O         2.040420         0.832070         2.617286
 C         2.139065         1.005408        -0.036510
 O         1.666283         2.292557        -0.276224
 H        -0.449618         0.232871        -0.864671
 H        -0.756574        -1.227258         0.263817
 H        -0.572011         0.386957         0.879776
 H         2.690658        -2.119627        -0.397672
 H         1.887476        -1.210848        -1.748987
 H         4.155110         0.378448        -1.160658
 H         4.220042        -0.959468         1.306578
 H         4.485867         0.801026         1.264729
 H         2.005164         1.823146         2.543691
 H         1.328815         2.266545        -1.204936
