19
Iteration:  4196charge 0 multiplicity 1
 C        -0.046614        -0.193447         0.408757
 C         1.328415         0.036105        -0.000038
 C         2.224974        -0.324046        -1.289680
 C         3.318579         0.512303        -0.667562
 C         3.639209        -0.339563         0.681050
 C         2.282320         0.070544         1.222386
 O         2.020145        -0.220287         2.522533
 C         2.234790         1.252922         0.302241
 O         1.875876         2.550674         0.307592
 H        -0.593570         0.800666         0.341936
 H        -0.493870        -0.832868        -0.380644
 H        -0.166295        -0.640071         1.389723
 H         2.506331        -1.346915        -1.551427
 H         1.722471         0.068856        -2.166631
 H         3.948935         0.909639        -1.407517
 H         3.842382        -1.422354         0.320251
 H         4.468343         0.071048         1.230915
 H         2.349747        -1.097075         2.743372
 H         2.495926         2.984694         0.899332
