19
Iteration:  2054charge 0 multiplicity 1
 C        -0.133537        -0.556811         0.227754
 C         1.361470        -0.243135         0.283461
 C         2.290168        -1.107628        -0.642013
 C         3.333916        -0.005808        -0.512588
 C         3.835340         0.031147         0.866191
 C         2.390702         0.475153         1.274705
 O         1.988170         1.069759         2.483573
 C         2.193213         0.999983        -0.154365
 O         1.807565         2.330640        -0.148912
 H        -0.641282         0.113376         0.953967
 H        -0.637404        -0.425208        -0.750764
 H        -0.406719        -1.528850         0.587460
 H         2.602670        -2.106395        -0.272182
 H         1.736185        -1.341440        -1.560358
 H         3.935087         0.322098        -1.411732
 H         4.124746        -0.992591         1.249885
 H         4.539081         0.797928         0.886015
 H         1.732068         2.002276         2.329128
 H         1.236936         2.613426        -0.901761
