19
Iteration:  3405
 C        -0.125707        -0.502279         0.223986
 C         1.347989        -0.095495         0.209386
 C         2.188682        -0.806846        -1.023619
 C         3.207289         0.314508        -0.664985
 C         3.750422        -0.114492         0.862724
 C         2.379273         0.283840         1.292055
 O         2.136657         0.452796         2.658118
 C         2.110772         1.156816         0.116572
 O         1.987985         2.526971        -0.054846
 H        -0.276561        -1.479571        -0.315611
 H        -0.552829        -0.791242         1.188517
 H        -0.664067         0.318941        -0.369256
 H         2.640879        -1.806715        -0.892258
 H         1.580693        -0.681474        -1.912651
 H         3.977085         0.782027        -1.344452
 H         3.908138        -1.251567         1.094462
 H         4.486643         0.572452         1.135898
 H         1.322209         0.107803         3.034212
 H         1.494326         2.696965        -0.876099
