19
Iteration:  1441charge 0 multiplicity 1
 C         0.007253        -0.477794         0.416939
 C         1.418007        -0.262834         0.176242
 C         2.368430        -0.909327        -0.900691
 C         3.321318         0.143913        -0.425525
 C         3.717059        -0.019225         1.060746
 C         2.320580         0.428404         1.329852
 O         1.692958         0.816602         2.581662
 C         2.220263         1.084188        -0.007008
 O         1.914150         2.317726        -0.569877
 H        -0.395517         0.327045         1.105679
 H        -0.621077        -0.413907        -0.538857
 H        -0.173222        -1.514506         0.848934
 H         2.832933        -1.909680        -0.801159
 H         2.017146        -0.738228        -1.949267
 H         4.236199         0.474286        -1.019616
 H         3.998789        -1.070042         1.479161
 H         4.625701         0.749471         1.282911
 H         2.448683         0.671521         3.174750
 H         1.034764         2.402106        -1.010876
