19
Iteration:  1690charge 0 multiplicity 1
 C         0.021530        -0.228590         0.439014
 C         1.479148        -0.213727         0.120777
 C         2.407866        -1.109427        -0.725208
 C         3.451256        -0.030498        -0.522181
 C         3.809235         0.008296         0.961406
 C         2.383339         0.473549         1.236263
 O         1.842158         0.897942         2.444159
 C         2.186010         1.049256        -0.017650
 O         1.526534         2.223004        -0.355315
 H        -0.276144         0.704020         0.950787
 H        -0.651400        -0.417683        -0.377225
 H        -0.114979        -0.948698         1.247804
 H         2.431173        -2.148015        -0.381603
 H         2.048905        -1.126728        -1.787068
 H         4.196080         0.358885        -1.357198
 H         4.142994        -1.045658         1.455104
 H         4.557103         0.776878         1.181540
 H         0.933741         0.536299         2.458746
 H         2.166355         2.959571        -0.158075
