19
Iteration:  2596charge 0 multiplicity 1
 C        -0.193900        -0.366432         0.175741
 C         1.410218        -0.223207         0.183596
 C         2.309029        -1.048177        -0.737331
 C         3.417388         0.091690        -0.545087
 C         3.840857        -0.005911         0.972705
 C         2.339634         0.387954         1.282625
 O         1.964114         0.730850         2.540889
 C         2.147146         1.070236        -0.026983
 O         1.791571         2.399812        -0.186763
 H        -0.621252         0.259545         1.018123
 H        -0.609072         0.060638        -0.781857
 H        -0.612945        -1.435343         0.119979
 H         2.413911        -2.143119        -0.511797
 H         1.909742        -1.002241        -1.775672
 H         4.113212         0.546814        -1.301216
 H         4.245664        -0.973625         1.335740
 H         4.464252         0.755675         1.160682
 H         2.528559         1.497587         2.802719
 H         1.035753         2.437567        -0.814640
