19
Iteration:  4255charge 0 multiplicity 1
 C        -0.126477        -0.183416         0.188861
 C         1.401001        -0.051532         0.007662
 C         2.101299        -0.416653        -1.264622
 C         3.277921         0.489828        -0.753294
 C         3.762252        -0.359423         0.576917
 C         2.356743         0.015528         1.200026
 O         2.084133        -0.059919         2.523631
 C         2.214194         1.232009         0.255501
 O         1.891847         2.534427         0.642963
 H        -0.641511        -0.535105        -0.744333
 H        -0.411694        -0.913455         0.982442
 H        -0.590755         0.808419         0.479759
 H         2.400380        -1.434900        -1.523785
 H         1.466605         0.085943        -2.009783
 H         4.010525         1.117275        -1.363542
 H         4.300337        -1.299906         0.390430
 H         4.530973         0.417388         1.068642
 H         1.175965        -0.382368         2.764142
 H         2.507676         2.782163         1.350219
