19
Iteration:  2562
 C        -0.073886        -0.567233         0.369967
 C         1.363548        -0.156662         0.165895
 C         2.302359        -0.934783        -0.796060
 C         3.398030         0.155430        -0.580329
 C         3.728800        -0.108052         0.912598
 C         2.303257         0.409091         1.302137
 O         1.833137         0.714199         2.628189
 C         2.252449         1.134338        -0.016228
 O         1.938824         2.458373        -0.339013
 H        -0.368075        -1.029662         1.380716
 H        -0.795023         0.253620         0.184294
 H        -0.352713        -1.436872        -0.296034
 H         2.449906        -2.003880        -0.511416
 H         1.549894        -0.873894        -1.604909
 H         4.038117         0.681717        -1.350252
 H         3.999038        -1.186684         1.138642
 H         4.501863         0.420346         1.222940
 H         1.888242         1.694257         2.771965
 H         1.648362         2.509786        -1.281071
