19
Iteration:  4036charge 0 multiplicity 1
 C        -0.134472        -0.281812         0.365231
 C         1.368721         0.030925         0.055448
 C         2.159381        -0.381164        -1.199925
 C         3.340841         0.415051        -0.641806
 C         3.747138        -0.357233         0.633048
 C         2.452066         0.050227         1.169875
 O         1.988870         0.082542         2.490370
 C         2.231457         1.198010         0.165464
 O         1.818789         2.506643         0.403299
 H        -0.600538        -0.570044        -0.605351
 H        -0.260392        -1.178582         1.014130
 H        -0.716179         0.555712         0.754035
 H         2.364357        -1.469283        -1.464250
 H         1.787138         0.153735        -2.105936
 H         4.244586         0.661813        -1.212404
 H         4.023062        -1.404834         0.672990
 H         4.575142         0.275436         1.195214
 H         1.441787        -0.696472         2.647653
 H         2.437913         3.121331         0.823184
