19
Iteration:  3908
 C        -0.062120        -0.126220         0.215170
 C         1.406336        -0.076039         0.022414
 C         2.149865        -0.586031        -1.133347
 C         3.390356         0.349019        -0.681462
 C         3.795563        -0.318986         0.594376
 C         2.335889         0.035727         1.202081
 O         2.089969         0.233704         2.509679
 C         2.213531         1.229908         0.185622
 O         1.668182         2.455205         0.491187
 H        -0.199752        -0.444126         1.236558
 H        -0.608917         0.794527         0.148688
 H        -0.505797        -0.862552        -0.514898
 H         2.432079        -1.631598        -1.087287
 H         1.904051        -0.264102        -2.141427
 H         4.185616         0.645134        -1.424411
 H         4.017530        -1.409698         0.586669
 H         4.511687         0.092881         1.184864
 H         1.223438        -0.095017         2.857020
 H         2.356746         3.025924         0.869725
