19
Iteration:  1149charge 0 multiplicity 1
 C        -0.133631        -0.460659         0.183394
 C         1.376495        -0.155149         0.049048
 C         2.353928        -0.983263        -0.735469
 C         3.497143         0.118465        -0.371559
 C         3.843208        -0.055853         1.100355
 C         2.340589         0.398435         1.267590
 O         1.699855         0.920676         2.440413
 C         2.250018         1.028414        -0.038451
 O         1.803843         2.328118        -0.297976
 H        -0.678657         0.387530         0.639297
 H        -0.617009        -0.531439        -0.836491
 H        -0.321130        -1.456925         0.697452
 H         2.622539        -1.935031        -0.401487
 H         2.073595        -1.093777        -1.822443
 H         4.174126         0.311603        -1.241788
 H         4.202832        -1.129399         1.373367
 H         4.407467         0.776815         1.569681
 H         1.328868         0.166443         2.958296
 H         2.608116         2.820374        -0.106775
