19
Iteration:   229charge 0 multiplicity 1
 C        -0.138639        -0.278714         0.376424
 C         1.367324        -0.215918         0.037068
 C         2.360091        -1.013144        -0.813752
 C         3.486177         0.122966        -0.467913
 C         3.693212        -0.149192         1.128083
 C         2.269430         0.362847         1.227639
 O         1.889011         0.841685         2.532423
 C         2.255393         1.072240        -0.099994
 O         1.883054         2.374671        -0.300711
 H        -0.458183         0.466371         1.147711
 H        -0.754296        -0.039640        -0.547811
 H        -0.510780        -1.275079         0.706757
 H         2.531844        -2.098201        -0.742635
 H         2.135850        -0.793722        -1.804537
 H         4.244069         0.205962        -1.189403
 H         3.747422        -1.296559         1.416339
 H         4.329781         0.392539         1.824014
 H         0.981809         0.514297         2.651040
 H         2.090804         2.627679        -1.246866
