19
Iteration:  3699charge 0 multiplicity 1
 C        -0.160203        -0.189573         0.192432
 C         1.342428        -0.204633         0.039988
 C         2.162866        -0.661077        -1.080735
 C         3.313381         0.384313        -0.673992
 C         3.871304        -0.154527         0.753683
 C         2.413636         0.110083         1.240592
 O         2.009367         0.320730         2.630236
 C         2.198760         1.146727         0.151195
 O         1.885835         2.479702         0.260782
 H        -0.691260        -0.698521         1.012911
 H        -0.522279         0.778720         0.068882
 H        -0.527979        -0.884604        -0.588546
 H         2.548625        -1.724641        -0.975009
 H         1.552749        -0.642783        -2.013261
 H         3.839569         0.743291        -1.537902
 H         4.100779        -1.265232         0.792606
 H         4.601802         0.456561         1.126255
 H         2.250145        -0.462049         3.126865
 H         1.028694         2.686789        -0.155020
