19
Iteration:  4956
 C        -0.048042        -0.322601         0.285006
 C         1.267704         0.178097        -0.146313
 C         2.009823         0.124173        -1.417611
 C         3.253785         0.750004        -0.709071
 C         3.708879        -0.475465         0.336349
 C         2.382888        -0.208973         1.085780
 O         1.846482        -0.416224         2.407354
 C         2.248717         1.221120         0.444669
 O         2.267944         2.563516         1.068487
 H        -0.627199        -0.328524        -0.649258
 H        -0.032811        -1.389931         0.607362
 H        -0.533385         0.301585         1.056543
 H         2.175604        -0.961686        -1.745436
 H         1.570013         0.622532        -2.364831
 H         4.142348         1.326110        -0.921372
 H         3.866311        -1.376318        -0.317794
 H         4.760514        -0.088196         0.670736
 H         1.718578        -1.398715         2.458876
 H         1.455351         2.697786         1.649604
