19
Iteration:  2508
 C        -0.023582        -0.570732         0.679198
 C         1.399191        -0.123399         0.109448
 C         2.362285        -0.931678        -0.886459
 C         3.409836         0.131865        -0.563713
 C         3.722483        -0.075730         0.971634
 C         2.296091         0.385577         1.245811
 O         1.593510         0.722134         2.427719
 C         2.265606         1.132878        -0.085667
 O         1.999196         2.447709        -0.297824
 H        -0.068647        -1.699262         0.506587
 H         0.005872        -0.348254         1.765460
 H        -0.999138        -0.052805         0.227951
 H         2.361934        -1.971970        -0.488923
 H         2.017842        -0.968724        -1.954951
 H         4.249102         0.125997        -1.327347
 H         4.168919        -1.108655         1.131819
 H         4.466985         0.603962         1.268638
 H         1.925340         1.594732         2.753245
 H         1.401739         2.698609        -1.037136
