19
Iteration:   657
 C        -0.000010        -0.161717         0.357299
 C         1.415145        -0.129016         0.086365
 C         2.450080        -1.000549        -0.739939
 C         3.448663         0.143775        -0.430192
 C         3.702851        -0.048783         1.076250
 C         2.243230         0.318409         1.318057
 O         1.666344         0.649053         2.603254
 C         2.229116         1.078120        -0.087095
 O         1.825178         2.289068        -0.636381
 H        -0.236397         0.322206         1.327184
 H        -0.642017         0.361050        -0.374957
 H        -0.304323        -1.208411         0.372739
 H         2.744371        -1.964143        -0.430952
 H         2.373783        -0.920680        -1.833229
 H         4.302051         0.394387        -1.091972
 H         4.044586        -1.072566         1.458933
 H         4.397336         0.723437         1.478503
 H         1.724535        -0.090761         3.224851
 H         2.050959         3.010918        -0.014685
