19
Iteration:  2289
 C        -0.039324        -0.578506         0.393108
 C         1.379414        -0.259627         0.222157
 C         2.263413        -1.051418        -0.723271
 C         3.391424         0.046017        -0.531337
 C         3.761272        -0.005362         0.970169
 C         2.276716         0.389238         1.286402
 O         1.943414         1.028703         2.467538
 C         2.096877         1.029223        -0.081682
 O         1.926394         2.393497        -0.316273
 H        -0.332560        -0.459250         1.431236
 H        -0.591524         0.184832        -0.123144
 H        -0.378493        -1.595797         0.024255
 H         2.673966        -2.001238        -0.351116
 H         1.813590        -1.266134        -1.672156
 H         4.223334         0.147417        -1.230113
 H         4.233911        -0.898735         1.298755
 H         4.261138         0.988333         1.152714
 H         1.376519         1.832418         2.359076
 H         1.451593         2.454793        -1.161415
