19
Iteration:   986
 C        -0.091827        -0.435988         0.349229
 C         1.416214        -0.325520         0.136628
 C         2.397842        -1.090768        -0.751013
 C         3.372230         0.116038        -0.518685
 C         3.770620        -0.024404         0.990400
 C         2.259956         0.319387         1.197786
 O         1.619787         0.905190         2.381114
 C         2.210253         1.045167        -0.124472
 O         2.071803         2.434176        -0.022321
 H        -0.369657         0.040581         1.268682
 H        -0.555361         0.198097        -0.417402
 H        -0.554878        -1.427698         0.247180
 H         2.569500        -2.161248        -0.406978
 H         1.995488        -1.002824        -1.831159
 H         4.224029         0.214370        -1.160986
 H         4.281060        -0.885967         1.379653
 H         4.247538         0.891486         1.289061
 H         1.109747         1.666812         2.067850
 H         2.164200         2.758597        -0.955359
