19
Iteration:  3914
 C        -0.106575        -0.118352         0.190096
 C         1.390389         0.009248         0.060509
 C         2.158229        -0.630980        -1.153130
 C         3.337740         0.392630        -0.653803
 C         3.779283        -0.325645         0.617524
 C         2.404728         0.077566         1.160047
 O         2.108443         0.209243         2.503014
 C         2.232256         1.183561         0.215113
 O         1.678285         2.425064         0.473369
 H        -0.363413        -0.339479         1.284683
 H        -0.717569         0.818068        -0.008176
 H        -0.395275        -1.001171        -0.346908
 H         2.500123        -1.696826        -1.099140
 H         1.964241        -0.395253        -2.225524
 H         4.045142         0.806075        -1.322151
 H         3.926521        -1.410044         0.653409
 H         4.732093         0.123057         1.242472
 H         1.221638        -0.166032         2.647933
 H         2.347200         3.018660         0.902139
