19
Iteration:  3042
 C        -0.064013        -0.285101         0.513084
 C         1.356113        -0.134403         0.053908
 C         2.311990        -0.887192        -1.007055
 C         3.351750         0.217047        -0.629129
 C         3.742077        -0.057296         0.922280
 C         2.430212         0.318527         1.261476
 O         1.924636         0.408227         2.551254
 C         2.165155         1.063113         0.028403
 O         1.733622         2.427341        -0.141614
 H         0.170518        -0.633528         1.547233
 H        -0.409529         0.676968         0.692318
 H        -0.670121        -0.930800        -0.065472
 H         2.649881        -1.911811        -0.942542
 H         1.804447        -0.813439        -1.959154
 H         4.090968         0.790940        -1.167607
 H         3.982265        -1.175492         1.095053
 H         4.595440         0.646824         1.395010
 H         1.754062         1.351587         2.660061
 H         2.173368         2.771471        -0.950072
