19
Iteration:  1433charge 0 multiplicity 1
 C        -0.064859        -0.466386         0.470778
 C         1.483305        -0.291639         0.201382
 C         2.392455        -0.941360        -0.855175
 C         3.402246         0.174345        -0.463179
 C         3.755909        -0.044335         1.048823
 C         2.357251         0.479619         1.313789
 O         1.647126         0.756846         2.489170
 C         2.175151         1.105701        -0.015731
 O         1.941101         2.332368        -0.576898
 H        -0.462125         0.275530         1.116817
 H        -0.562035        -0.480928        -0.497886
 H        -0.380918        -1.340847         1.050427
 H         2.552188        -2.042563        -0.748279
 H         1.991975        -0.632483        -1.816007
 H         4.099309         0.618018        -1.120202
 H         3.942916        -1.059919         1.426556
 H         4.403677         0.737107         1.352502
 H         2.219109         0.794433         3.285255
 H         0.968203         2.484774        -0.495293
