19
Iteration:  1088charge 0 multiplicity 1
 C        -0.164133        -0.130408         0.298607
 C         1.410323        -0.182224         0.041554
 C         2.413521        -0.965269        -0.798261
 C         3.484168         0.092608        -0.335008
 C         3.783642         0.021818         1.146085
 C         2.326016         0.376867         1.345123
 O         1.663481         0.537506         2.466409
 C         2.272542         1.067836         0.039058
 O         1.837995         2.269747        -0.585379
 H        -0.485499         0.877743         0.536802
 H        -0.612375        -0.490025        -0.600051
 H        -0.565445        -0.755698         1.088709
 H         2.871465        -2.002040        -0.420739
 H         2.249812        -1.084212        -1.900812
 H         4.280313         0.343299        -1.155479
 H         4.318261        -0.777130         1.519456
 H         4.339871         0.961162         1.385066
 H         2.267982         0.873646         3.189866
 H         1.191572         2.720938        -0.027602
