19
Iteration:  2337
 C        -0.055622        -0.576566         0.537690
 C         1.353574        -0.186855         0.152821
 C         2.287813        -1.065168        -0.629304
 C         3.288853         0.167528        -0.499596
 C         3.687654         0.034215         0.949170
 C         2.326372         0.398784         1.304596
 O         1.897163         0.773587         2.574648
 C         2.169095         1.112107        -0.117224
 O         2.031672         2.462847        -0.562159
 H        -0.284321        -0.245079         1.621880
 H        -0.900492        -0.177433        -0.139022
 H        -0.022871        -1.672467         0.531574
 H         2.527949        -2.085120        -0.229231
 H         2.128836        -1.234299        -1.744441
 H         3.942114         0.418659        -1.369380
 H         3.905179        -0.897135         1.377463
 H         4.333261         0.942705         1.076283
 H         0.985837         1.029974         2.405945
 H         2.037597         2.508174        -1.537774
