19
Iteration:  1081
 C        -0.099296        -0.190215         0.290353
 C         1.415505        -0.166353         0.062455
 C         2.393359        -0.943291        -0.785854
 C         3.480431         0.125519        -0.384132
 C         3.795304        -0.053749         1.165725
 C         2.312679         0.400228         1.344476
 O         1.670042         0.534861         2.545791
 C         2.207127         1.087851         0.050551
 O         1.864808         2.280411        -0.625794
 H        -0.455954         0.869565         0.431703
 H        -0.600058        -0.551715        -0.661440
 H        -0.505319        -0.891940         1.039044
 H         2.571410        -1.993426        -0.661045
 H         2.265376        -0.748328        -1.834630
 H         4.296833         0.300927        -0.968698
 H         4.362080        -1.007901         1.552280
 H         4.391080         0.834512         1.322313
 H         2.194384         1.198094         3.105850
 H         1.056235         2.783682        -0.405140
