19
Iteration:    77
 C        -0.096519        -0.721870         0.402915
 C         1.279734        -0.225665        -0.017017
 C         2.287504        -0.933488        -0.763302
 C         3.409715         0.070808        -0.500172
 C         3.629108        -0.131344         1.046684
 C         2.208602         0.444909         1.212775
 O         1.768742         0.948458         2.384849
 C         2.271837         1.160647        -0.052528
 O         2.239544         2.522438        -0.158500
 H        -0.536892         0.152973         0.850171
 H        -0.812109        -1.125016        -0.282292
 H         0.025350        -1.354625         1.245683
 H         2.508093        -2.034688        -0.387501
 H         1.971588        -0.910813        -1.818663
 H         4.281384         0.099538        -1.096570
 H         3.730804        -1.151019         1.270557
 H         4.315386         0.504929         1.551332
 H         0.930727         0.506023         2.680578
 H         1.785024         2.801096        -1.020038
