19
Iteration:  2087charge 0 multiplicity 1
 C        -0.072901        -0.438769         0.546528
 C         1.403107        -0.299723         0.151154
 C         2.323759        -1.058496        -0.774248
 C         3.416877        -0.017912        -0.504840
 C         3.770572        -0.045020         0.976029
 C         2.351882         0.378225         1.225226
 O         1.905725         1.037390         2.299104
 C         2.225235         1.020692        -0.161414
 O         1.729277         2.376395        -0.118902
 H        -0.416710         0.574674         0.830710
 H        -0.669313        -0.839567        -0.285668
 H        -0.148419        -1.056126         1.403692
 H         2.707136        -2.037984        -0.445589
 H         1.957113        -1.132263        -1.819762
 H         4.211438         0.489237        -1.106870
 H         4.163370        -1.072178         1.372972
 H         4.557921         0.643279         1.128744
 H         1.458307         1.847458         2.030175
 H         1.197162         2.467952        -0.920763
