19
Iteration:  4205
 C        -0.144389        -0.211121         0.353596
 C         1.386051        -0.037377         0.003133
 C         2.124486        -0.357665        -1.258578
 C         3.300638         0.499309        -0.613072
 C         3.695826        -0.294671         0.631645
 C         2.365856        -0.010169         1.177422
 O         2.036793        -0.215919         2.505059
 C         2.247533         1.282798         0.298875
 O         1.892304         2.645293         0.336185
 H        -0.614210         0.686154         0.016527
 H        -0.662095        -0.990991        -0.216202
 H        -0.332344        -0.379944         1.425335
 H         2.527600        -1.372791        -1.376310
 H         1.743861         0.039043        -2.205533
 H         4.138763         0.896863        -1.123564
 H         3.818958        -1.393931         0.413919
 H         4.374378         0.070231         1.305796
 H         2.208406        -1.099469         2.832270
 H         2.419615         3.181727         0.934793
