19
Iteration:   226
 C        -0.154236        -0.273440         0.344373
 C         1.372954        -0.212620         0.057168
 C         2.367484        -0.999309        -0.803302
 C         3.480185         0.091220        -0.483804
 C         3.682825        -0.145901         1.126344
 C         2.292596         0.368871         1.242013
 O         1.889393         0.830222         2.561365
 C         2.273514         1.091969        -0.076393
 O         1.868194         2.369295        -0.320287
 H        -0.404309         0.502274         1.105765
 H        -0.743867         0.033772        -0.556706
 H        -0.596440        -1.281806         0.645514
 H         2.546480        -2.076891        -0.786724
 H         2.065852        -0.878184        -1.891469
 H         4.225470         0.281357        -1.259025
 H         3.835197        -1.230599         1.452372
 H         4.381763         0.435110         1.746959
 H         0.946437         0.464976         2.649473
 H         2.045422         2.486127        -1.264773
