19
Iteration:  4002
 C        -0.051495        -0.260656         0.466821
 C         1.313592         0.026065        -0.035513
 C         2.204350        -0.434978        -1.266162
 C         3.319750         0.433457        -0.640360
 C         3.767704        -0.387622         0.631495
 C         2.499096         0.050857         1.285186
 O         1.839902        -0.051478         2.555151
 C         2.184146         1.239983         0.218151
 O         1.832865         2.675951         0.209533
 H        -0.751534         0.410472        -0.103546
 H        -0.344967        -1.341401         0.375225
 H        -0.081078        -0.055441         1.519452
 H         2.638201        -1.495079        -1.327302
 H         1.887031        -0.115128        -2.294290
 H         4.104193         0.762487        -1.274673
 H         3.984993        -1.447454         0.633573
 H         4.720253         0.208426         1.055609
 H         2.049889        -0.948187         2.851412
 H         2.372988         2.992173         0.993272
