19
Iteration:  2074charge 0 multiplicity 1
 C        -0.042700        -0.467462         0.430169
 C         1.389936        -0.180669         0.190781
 C         2.291389        -1.095428        -0.728332
 C         3.429838        -0.002049        -0.594869
 C         3.822224        -0.011601         0.951262
 C         2.370834         0.323553         1.220804
 O         1.957436         1.088556         2.342796
 C         2.138597         1.037478        -0.029976
 O         1.743177         2.333931        -0.112252
 H        -0.668396         0.332612         0.796376
 H        -0.464069        -0.704182        -0.538640
 H        -0.271847        -1.344129         1.040820
 H         2.415112        -2.063663        -0.228098
 H         1.930225        -1.259025        -1.776241
 H         4.061391        -0.138418        -1.438234
 H         4.234249        -1.033422         1.470508
 H         4.293185         0.867111         1.330717
 H         1.394350         1.780185         1.899811
 H         1.271751         2.536779        -0.946903
