19
Iteration:  1272charge 0 multiplicity 1
 C        -0.049705        -0.263300         0.351512
 C         1.417385        -0.220998         0.096584
 C         2.456416        -1.055411        -0.675865
 C         3.438473         0.143734        -0.464650
 C         3.818405         0.065437         1.064781
 C         2.347863         0.395924         1.245541
 O         1.570416         0.647377         2.451343
 C         2.185524         1.074256        -0.034967
 O         1.828496         2.352870        -0.404251
 H        -0.173932         0.390696         1.235467
 H        -0.552138         0.158126        -0.537059
 H        -0.544543        -1.246784         0.595739
 H         2.828852        -2.003567        -0.311172
 H         2.166881        -1.315307        -1.741622
 H         4.143490         0.571955        -1.168124
 H         4.153444        -0.959302         1.392935
 H         4.413227         0.915709         1.513927
 H         2.065123         0.376153         3.221652
 H         1.931637         2.403678        -1.384762
