19
Iteration:  4991
 C        -0.128912        -0.236328         0.269792
 C         1.274113         0.089585        -0.035127
 C         2.021388         0.149006        -1.367333
 C         3.358884         0.632735        -0.681418
 C         3.680487        -0.448177         0.393607
 C         2.368480        -0.098555         0.974048
 O         1.992185        -0.363921         2.268369
 C         2.232932         1.243120         0.393963
 O         2.103782         2.441381         1.132964
 H        -0.473531        -0.900767        -0.517125
 H        -0.299280        -0.778389         1.238001
 H        -0.825543         0.604125         0.177786
 H         2.214942        -0.792721        -1.937499
 H         1.487769         0.966406        -2.041446
 H         4.068965         1.201897        -1.252655
 H         3.972574        -1.420045        -0.120827
 H         4.535749        -0.034649         0.935674
 H         1.645832        -1.259922         2.402560
 H         2.656082         2.152237         1.923778
