19
Iteration:  3132charge 0 multiplicity 1
 C        -0.156124        -0.407202         0.335959
 C         1.353170        -0.128053         0.152572
 C         2.212882        -0.835784        -0.921004
 C         3.308976         0.177841        -0.607140
 C         3.777062        -0.119577         0.879456
 C         2.378887         0.247837         1.249913
 O         2.039174         0.502581         2.612069
 C         2.191600         1.171267         0.012736
 O         1.784151         2.500916        -0.209662
 H        -0.754398         0.447248         0.428396
 H        -0.480543        -0.787135        -0.600053
 H        -0.516900        -1.178257         1.075430
 H         2.561191        -1.851012        -0.872357
 H         1.804457        -0.661081        -1.916754
 H         3.966082         0.746099        -1.291096
 H         4.204002        -1.140603         0.977686
 H         4.622051         0.526614         1.431282
 H         2.917936         0.616203         2.981691
 H         1.900189         2.918670         0.687723
