19
Iteration:  3433
 C        -0.136880        -0.490970         0.461877
 C         1.343432        -0.046746         0.149623
 C         2.227205        -0.780736        -0.957332
 C         3.378290         0.253290        -0.585181
 C         3.834391        -0.091269         0.786929
 C         2.326208         0.256259         1.210914
 O         1.936843         0.293554         2.575294
 C         2.162909         1.209349         0.021712
 O         1.975898         2.608150        -0.119467
 H        -0.320489        -1.579400         0.535009
 H        -0.413853        -0.227121         1.522432
 H        -0.718315         0.063125        -0.213669
 H         2.462222        -1.860213        -0.891075
 H         1.824308        -0.414407        -1.920677
 H         4.174593         0.493223        -1.293665
 H         4.217375        -1.095603         0.902323
 H         4.659400         0.607423         1.216068
 H         1.038605         0.004910         2.724489
 H         1.057465         2.843453        -0.361033
