19
Iteration:  2967
 C        -0.185251        -0.551189         0.301604
 C         1.311578        -0.245419         0.098713
 C         2.278359        -0.903079        -0.910688
 C         3.370430         0.216118        -0.641037
 C         3.809519        -0.120435         0.861428
 C         2.365918         0.263694         1.225032
 O         1.937538         0.818419         2.569782
 C         2.139401         1.066672         0.008289
 O         1.892663         2.465681        -0.007740
 H        -0.364775        -1.364279        -0.414596
 H        -0.408020        -0.800530         1.294840
 H        -0.669277         0.337632        -0.164266
 H         2.421864        -1.988795        -0.889781
 H         1.816527        -0.622288        -1.874608
 H         4.057665         0.313092        -1.484381
 H         4.135738        -1.055890         1.041774
 H         4.637132         0.582483         1.226210
 H         2.584044         1.569225         2.646794
 H         1.623997         2.739691         0.882478
