19
Iteration:  3675charge 0 multiplicity 1
 C        -0.154088        -0.304259         0.208607
 C         1.337954        -0.056338         0.141226
 C         2.223961        -0.631299        -1.081150
 C         3.225240         0.348237        -0.559031
 C         3.767914        -0.209431         0.705842
 C         2.408671         0.148628         1.292588
 O         2.022919         0.242324         2.623536
 C         2.210666         1.213586         0.175298
 O         1.950601         2.511878         0.092158
 H        -0.376491        -1.335319         0.514435
 H        -0.696458         0.367069         0.850878
 H        -0.570451        -0.419587        -0.750312
 H         2.441689        -1.714969        -1.176541
 H         1.696858        -0.322415        -2.005154
 H         3.931522         0.667842        -1.367945
 H         4.225495        -1.194535         0.767522
 H         4.451146         0.613108         1.010467
 H         2.170820        -0.620398         3.068525
 H         1.115574         2.753352        -0.371892
