19
Iteration:   170
 C        -0.110476         0.045304         0.057013
 C         1.391783        -0.151540         0.224920
 C         2.359428        -1.021025        -0.668992
 C         3.375036         0.105851        -0.399981
 C         3.728644        -0.066069         1.026938
 C         2.363030         0.415155         1.351752
 O         1.923039         0.573760         2.726745
 C         2.232227         1.123633         0.029412
 O         1.763969         2.191957        -0.670018
 H        -0.709933         0.618580         0.807936
 H        -0.215178         0.565073        -0.940292
 H        -0.468948        -1.035527        -0.008051
 H         2.792555        -1.932315        -0.273994
 H         2.005948        -1.113946        -1.775038
 H         4.339695         0.091893        -1.030441
 H         4.056714        -1.097434         1.394163
 H         4.474199         0.765473         1.225745
 H         1.639771        -0.307653         2.918215
 H         1.217353         2.746155        -0.108522
