19
Iteration:   425
 C        -0.076913        -0.155685         0.166299
 C         1.388872        -0.250027         0.165127
 C         2.410473        -1.011962        -0.724233
 C         3.454283         0.065081        -0.376243
 C         3.644087        -0.063328         1.067898
 C         2.258653         0.382804         1.290839
 O         1.872168         0.654450         2.570312
 C         2.300088         1.090706         0.004617
 O         1.821408         2.352487        -0.438421
 H        -0.517269         0.517595         0.949135
 H        -0.536068         0.332575        -0.744312
 H        -0.655727        -1.114185         0.190816
 H         2.710960        -2.108474        -0.340246
 H         2.203411        -0.933078        -1.874873
 H         4.362381         0.261612        -0.928650
 H         4.081754        -1.029235         1.409579
 H         4.032277         0.845000         1.456134
 H         0.975104         1.039330         2.642386
 H         1.895972         2.351775        -1.424518
