19
Iteration:   402charge 0 multiplicity 1
 C        -0.024003         0.067719         0.202362
 C         1.433361        -0.226360         0.101223
 C         2.415621        -1.049492        -0.826529
 C         3.480637         0.068983        -0.478727
 C         3.808269        -0.019083         1.258969
 C         2.342838         0.343305         1.342928
 O         1.772697         0.676771         2.615680
 C         2.201066         0.934428        -0.104293
 O         1.667159         2.241001        -0.433970
 H        -0.243982         0.963268         0.791922
 H        -0.441667         0.353961        -0.790615
 H        -0.659069        -0.757129         0.528893
 H         2.776468        -2.113791        -0.513808
 H         2.093155        -0.963669        -1.965310
 H         4.255067         0.369779        -1.102221
 H         3.985174        -1.061838         1.568247
 H         4.497138         0.723072         1.636183
 H         0.821881         0.719044         2.716965
 H         2.180423         2.607829        -1.153408
