19
Iteration:  2608charge 0 multiplicity 1
 C        -0.155224        -0.257703         0.166235
 C         1.375477        -0.267516         0.201174
 C         2.313398        -1.063842        -0.807567
 C         3.464384         0.113679        -0.623533
 C         3.789278         0.022314         0.917010
 C         2.406377         0.357863         1.294493
 O         1.895286         0.763818         2.627954
 C         2.210455         1.042325        -0.083420
 O         1.723670         2.330711        -0.126651
 H        -0.555056         0.595522         0.775301
 H        -0.431281        -0.116703        -0.932244
 H        -0.569823        -1.170262         0.734421
 H         2.717871        -2.040380        -0.406398
 H         1.934448        -1.110553        -1.841456
 H         4.322553         0.122418        -1.320790
 H         4.214271        -0.886001         1.322330
 H         4.334831         0.822540         1.271831
 H         2.509167         1.465781         2.928455
 H         0.967132         2.406553        -0.745318
