19
Iteration:  4111
 C        -0.214423        -0.175076         0.152787
 C         1.282767        -0.032149        -0.029010
 C         2.187097        -0.497435        -1.252183
 C         3.280091         0.356877        -0.623595
 C         3.823246        -0.310564         0.622992
 C         2.426835         0.052610         1.253070
 O         2.191978         0.015340         2.544392
 C         2.140822         1.155097         0.185231
 O         1.821947         2.621404         0.537274
 H        -0.554147        -0.993924         0.837595
 H        -0.678291         0.772101         0.530478
 H        -0.634180        -0.450666        -0.799515
 H         2.624426        -1.512738        -1.176224
 H         1.831735        -0.245844        -2.260362
 H         3.951467         0.890073        -1.257997
 H         4.267850        -1.265143         0.539925
 H         4.588910         0.476311         0.937119
 H         1.271959        -0.287963         2.772531
 H         2.197313         2.796952         1.448104
