19
Iteration:  3507
 C        -0.090443        -0.213422         0.225045
 C         1.412767        -0.131726         0.095435
 C         2.150257        -0.690200        -1.049285
 C         3.337755         0.271614        -0.564458
 C         3.724236        -0.176625         0.814193
 C         2.422563         0.215011         1.289080
 O         2.051762         0.410360         2.582619
 C         2.221952         1.118260         0.183104
 O         1.745540         2.411869         0.017356
 H        -0.264184        -0.220953         1.291671
 H        -0.861699         0.452068        -0.347931
 H        -0.347892        -1.230390        -0.132889
 H         2.281691        -1.803391        -1.030612
 H         1.823035        -0.321777        -2.046537
 H         4.153109         0.622687        -1.186573
 H         3.969265        -1.200334         0.871480
 H         4.624626         0.376846         1.305573
 H         2.616806        -0.103233         3.199986
 H         1.300231         2.527616        -0.854920
