19
Iteration:  1468
 C        -0.106121        -0.546086         0.250983
 C         1.350942        -0.194410         0.142646
 C         2.348402        -0.921947        -0.741983
 C         3.453687         0.147176        -0.395232
 C         3.686978        -0.058087         1.082976
 C         2.321247         0.440269         1.296112
 O         1.930538         0.868272         2.614079
 C         2.244707         1.130228        -0.002187
 O         1.710788         2.319143        -0.568444
 H        -0.543749        -0.042433         1.069605
 H        -0.702793        -0.243107        -0.577688
 H        -0.176925        -1.610746         0.276850
 H         2.522541        -2.011391        -0.527446
 H         2.127876        -0.883696        -1.812101
 H         4.279211         0.453845        -0.964883
 H         3.851801        -1.026494         1.490908
 H         4.355166         0.555299         1.544090
 H         2.462593         0.242548         3.156444
 H         2.156195         2.584582        -1.416012
