19
Iteration:  4982
 C        -0.130322        -0.273339         0.307869
 C         1.300197         0.145211        -0.051568
 C         2.102457         0.130446        -1.374342
 C         3.262731         0.700544        -0.681496
 C         3.690323        -0.430126         0.346422
 C         2.400482        -0.149238         1.002839
 O         1.923451        -0.333024         2.260631
 C         2.198344         1.249757         0.421589
 O         2.166560         2.397056         1.089225
 H        -0.468193        -0.936738        -0.505477
 H        -0.111908        -0.939928         1.189178
 H        -0.820309         0.544939         0.534406
 H         2.062506        -0.821058        -1.898345
 H         1.762207         0.996851        -2.069572
 H         4.188398         1.138350        -1.050703
 H         3.612415        -1.479351        -0.027132
 H         4.583768        -0.151512         0.829344
 H         1.704534        -1.279753         2.270116
 H         2.363993         2.380593         2.070156
