19
Iteration:   648
 C        -0.049549        -0.155811         0.291775
 C         1.453733        -0.115924         0.067409
 C         2.371054        -0.989046        -0.745518
 C         3.488124         0.162947        -0.410382
 C         3.707267        -0.085391         1.117906
 C         2.305162         0.425287         1.360845
 O         1.691124         0.614291         2.602042
 C         2.303299         1.101819        -0.046952
 O         1.742457         2.248415        -0.649009
 H        -0.413165         0.254339         1.245596
 H        -0.542807         0.186638        -0.642469
 H        -0.268387        -1.246421         0.401687
 H         2.662489        -2.028967        -0.465891
 H         2.002462        -1.048078        -1.743182
 H         4.299179         0.557600        -0.955856
 H         3.851259        -1.157458         1.327409
 H         4.418291         0.539472         1.723357
 H         2.115319        -0.085325         3.123702
 H         2.177364         3.069085        -0.325735
