19
Iteration:  2334
 C        -0.074608        -0.588359         0.522311
 C         1.336988        -0.211592         0.157540
 C         2.279581        -1.044099        -0.627472
 C         3.296098         0.148322        -0.502784
 C         3.699188         0.033553         0.941852
 C         2.354626         0.422584         1.286020
 O         1.896388         0.781020         2.578171
 C         2.139463         1.112665        -0.100529
 O         2.041966         2.464428        -0.553932
 H        -0.251388        -0.331538         1.571650
 H        -0.804303        -0.181726        -0.151042
 H        -0.021260        -1.723368         0.482692
 H         2.400828        -2.015190        -0.118830
 H         2.076311        -1.243318        -1.672505
 H         3.990498         0.419738        -1.320569
 H         3.995830        -0.890273         1.366151
 H         4.387049         0.985812         1.074522
 H         0.974737         1.032083         2.344849
 H         2.068335         2.523425        -1.517332
