19
Iteration:  1413
 C        -0.021385        -0.405788         0.525968
 C         1.412248        -0.191034         0.174788
 C         2.367834        -0.959156        -0.705087
 C         3.429437         0.183571        -0.483104
 C         3.860224        -0.002570         1.042336
 C         2.344643         0.371990         1.248699
 O         1.542351         0.635871         2.388207
 C         2.231430         1.100873        -0.115493
 O         1.863824         2.355459        -0.531684
 H        -0.479288         0.405872         1.048615
 H        -0.558373        -0.671695        -0.356181
 H        -0.130405        -1.170747         1.287158
 H         2.806541        -1.897323        -0.307562
 H         2.010396        -0.939048        -1.729512
 H         4.196196         0.342200        -1.170901
 H         4.014098        -1.024232         1.235780
 H         4.537045         0.679832         1.412238
 H         2.041010         1.264762         2.905527
 H         1.759503         2.940848         0.263564
