19
Iteration:  1579
 C         0.012258        -0.540574         0.429587
 C         1.388452        -0.163767         0.096312
 C         2.332639        -1.045432        -0.723987
 C         3.369219         0.151608        -0.506241
 C         3.807167        -0.120193         1.013186
 C         2.345423         0.498811         1.290445
 O         1.754369         0.936729         2.519010
 C         2.187468         1.110097        -0.010852
 O         1.746464         2.357160        -0.509720
 H        -0.610822         0.330891         0.717419
 H        -0.501213        -0.922187        -0.423624
 H        -0.014454        -1.330821         1.157049
 H         2.550531        -2.068694        -0.346196
 H         1.901098        -1.079046        -1.762185
 H         4.361796         0.310061        -1.104729
 H         4.047302        -1.250696         1.162884
 H         4.542416         0.477186         1.473114
 H         2.040155         0.243079         3.142512
 H         2.543786         2.888680        -0.664938
