19
Iteration:   431
 C        -0.089929        -0.224573         0.163129
 C         1.398799        -0.173346         0.200058
 C         2.362135        -0.998321        -0.713021
 C         3.431013         0.099023        -0.440317
 C         3.650671        -0.076193         1.126791
 C         2.252569         0.353884         1.305763
 O         1.866946         0.659728         2.566209
 C         2.286992         1.079440        -0.051897
 O         1.889230         2.375301        -0.437354
 H        -0.654585         0.329781         0.909905
 H        -0.453374         0.190967        -0.780971
 H        -0.446162        -1.257199         0.051844
 H         2.685189        -1.926540        -0.369770
 H         2.153599        -1.075990        -1.755428
 H         4.353094         0.358598        -0.984952
 H         3.994440        -1.082487         1.386418
 H         4.269328         0.746900         1.625910
 H         1.011573         1.144806         2.745048
 H         1.686241         2.260478        -1.399091
