19
Iteration:  1051
 C        -0.004791        -0.435709         0.283056
 C         1.437880        -0.143108         0.237387
 C         2.353595        -0.874927        -0.803612
 C         3.416246         0.235989        -0.514089
 C         3.578652        -0.244340         1.094157
 C         2.262843         0.481055         1.382607
 O         1.731830         0.611808         2.690879
 C         2.307258         1.213095         0.030852
 O         1.982129         2.331639        -0.649457
 H        -0.686698         0.381755         0.531886
 H        -0.252440        -0.574474        -0.799827
 H        -0.275190        -1.359512         0.862184
 H         2.659915        -1.908928        -0.718401
 H         1.888373        -0.677716        -1.832550
 H         4.347920         0.460389        -0.988521
 H         3.717664        -1.356143         1.224472
 H         4.457332         0.286543         1.468837
 H         1.507402         1.535993         2.840154
 H         1.196964         2.303866        -1.199632
