19
Iteration:  1215
 C        -0.086761        -0.573284         0.284681
 C         1.291834        -0.127598         0.054757
 C         2.415868        -0.950800        -0.773890
 C         3.395515         0.154866        -0.377380
 C         3.721413        -0.106462         1.119258
 C         2.342691         0.428859         1.302968
 O         1.746959         0.757206         2.563293
 C         2.223458         1.139427        -0.025796
 O         1.981420         2.365319        -0.552209
 H        -0.446236        -0.344626         1.304551
 H        -0.885985        -0.104538        -0.355563
 H        -0.023010        -1.700120         0.095019
 H         2.702481        -1.935058        -0.255041
 H         2.222785        -1.008090        -1.924845
 H         4.242124         0.601850        -1.024917
 H         3.965480        -1.221407         1.343398
 H         4.409583         0.570580         1.696378
 H         1.370778         1.670829         2.520954
 H         1.342334         2.901944        -0.031208
