19
Iteration:  2986charge 0 multiplicity 1
 C        -0.110155        -0.523573         0.183193
 C         1.345063        -0.173677         0.179443
 C         2.162063        -0.888820        -0.899362
 C         3.252269         0.137984        -0.612134
 C         3.812000        -0.096822         0.810956
 C         2.438786         0.292936         1.277806
 O         1.964361         0.771003         2.506763
 C         2.188594         1.065126         0.041488
 O         1.909638         2.437259         0.044298
 H        -0.274267        -1.600625        -0.077779
 H        -0.601218        -0.340243         1.133572
 H        -0.750153         0.003422        -0.542772
 H         2.529447        -1.827834        -0.547175
 H         1.811215        -0.689374        -1.898902
 H         3.959639         0.529107        -1.310428
 H         4.481512        -1.036026         1.067763
 H         4.584329         0.704358         1.156151
 H         2.423649         1.641733         2.654004
 H         0.991401         2.495408         0.350936
