19
Iteration:  4495
 C        -0.278816        -0.187871         0.086763
 C         1.283958        -0.078725        -0.048763
 C         2.162634        -0.220993        -1.310757
 C         3.266044         0.542448        -0.657994
 C         3.677626        -0.324545         0.454494
 C         2.403537        -0.052603         1.089670
 O         2.088402        -0.120649         2.527926
 C         2.184721         1.223507         0.328921
 O         2.059159         2.530061         0.854868
 H        -0.527686        -0.607441        -0.942068
 H        -0.720292        -0.889807         0.891040
 H        -0.701951         0.844165         0.172167
 H         2.584935        -1.305602        -1.595516
 H         1.489902         0.244026        -2.074511
 H         4.165094         0.893064        -1.083209
 H         3.953829        -1.350363         0.247529
 H         4.579660         0.193692         0.981925
 H         2.532206        -1.005716         2.721349
 H         2.091870         2.578882         1.845712
