19
Iteration:   642charge 0 multiplicity 1
 C        -0.077297        -0.196498         0.222986
 C         1.487475        -0.112470         0.119470
 C         2.348464        -0.962542        -0.774507
 C         3.504103         0.165241        -0.375608
 C         3.703239        -0.122661         1.169471
 C         2.343912         0.498060         1.341735
 O         1.721953         0.590627         2.590261
 C         2.303025         1.163912         0.002982
 O         1.698024         2.217764        -0.650486
 H        -0.461756         0.397460         1.065873
 H        -0.591607         0.133950        -0.684248
 H        -0.365806        -1.244161         0.373350
 H         2.506255        -2.006169        -0.371160
 H         1.802766        -1.083711        -1.773216
 H         4.347492         0.489959        -1.061367
 H         3.793791        -1.215054         1.304995
 H         4.523730         0.408476         1.650635
 H         2.268743        -0.012972         3.084991
 H         2.291187         2.972819        -0.542142
