19
Iteration:  4951charge 0 multiplicity 1
 C        -0.076969        -0.327540         0.249501
 C         1.314892         0.184743        -0.087262
 C         2.025117         0.107875        -1.420103
 C         3.228683         0.739127        -0.686713
 C         3.704119        -0.438780         0.321516
 C         2.385889        -0.175217         1.062341
 O         1.868523        -0.445925         2.399504
 C         2.223283         1.220393         0.450197
 O         2.273712         2.563325         1.060056
 H        -0.730120        -0.123691        -0.633844
 H        -0.017596        -1.378007         0.534431
 H        -0.511440         0.188495         1.115058
 H         2.087718        -0.913696        -1.784649
 H         1.594428         0.658758        -2.218337
 H         4.174143         1.216527        -1.069373
 H         3.885802        -1.467418        -0.070089
 H         4.671392        -0.188030         0.740762
 H         1.692637        -1.404306         2.499668
 H         1.430258         2.763218         1.462114
