19
Iteration:  2686charge 0 multiplicity 1
 C         0.024588        -0.490832         0.481066
 C         1.340592        -0.121459         0.061523
 C         2.284945        -0.884515        -0.979397
 C         3.335942         0.178638        -0.527334
 C         3.730666        -0.075988         1.128383
 C         2.311602         0.363181         1.297027
 O         1.840260         0.537883         2.578481
 C         2.183371         1.186734        -0.024137
 O         1.971508         2.446442        -0.425303
 H        -0.832352        -0.692428        -0.183816
 H        -0.008230        -1.431044         1.216205
 H        -0.380706         0.308028         1.246954
 H         2.552909        -1.976641        -0.765717
 H         1.766077        -0.846696        -1.951320
 H         4.059392         0.580757        -1.210164
 H         3.925797        -1.152269         1.348186
 H         4.497164         0.558447         1.372101
 H         1.937973         1.502297         2.784231
 H         1.158657         2.501617        -0.986214
