19
Iteration:  4117
 C        -0.180543        -0.160236         0.202339
 C         1.259631        -0.027768        -0.054014
 C         2.199336        -0.481039        -1.250528
 C         3.278898         0.375312        -0.684402
 C         3.814076        -0.290280         0.604049
 C         2.472494         0.077007         1.220123
 O         2.128434         0.002892         2.582095
 C         2.152404         1.166213         0.235157
 O         1.825864         2.564804         0.515606
 H        -0.439168        -0.900920         0.960427
 H        -0.691781         0.795313         0.308544
 H        -0.600154        -0.615626        -0.746574
 H         2.602473        -1.502936        -1.266847
 H         1.868649        -0.202503        -2.258050
 H         3.926681         1.005634        -1.333348
 H         4.182796        -1.401865         0.723603
 H         4.531968         0.339884         1.069363
 H         1.330838        -0.376536         2.946461
 H         2.268784         2.825760         1.349292
