19
Iteration:  1668charge 0 multiplicity 1
 C         0.015966        -0.336956         0.529786
 C         1.477347        -0.186310         0.211270
 C         2.352359        -1.068505        -0.666439
 C         3.395901         0.071994        -0.597347
 C         3.833809         0.015332         1.021093
 C         2.389314         0.354094         1.225628
 O         1.734110         0.839374         2.437211
 C         2.225884         1.061204        -0.190477
 O         1.649205         2.378000        -0.351426
 H        -0.467940         0.662840         0.643186
 H        -0.355649        -0.836215        -0.335061
 H        -0.182019        -0.847099         1.460994
 H         2.675365        -2.066582        -0.276714
 H         1.885122        -1.212808        -1.681608
 H         4.352188         0.134535        -1.337152
 H         4.121474        -1.125666         1.364503
 H         4.621541         0.734159         1.243654
 H         1.109413         0.150858         2.723845
 H         2.011853         2.977095        -1.013944
