19
Iteration:  4116charge 0 multiplicity 1
 C        -0.185789        -0.161238         0.195381
 C         1.259895        -0.027975        -0.049024
 C         2.198262        -0.481546        -1.252323
 C         3.277315         0.365108        -0.670456
 C         3.816075        -0.296044         0.604903
 C         2.466285         0.072884         1.231209
 O         2.139060         0.004284         2.573090
 C         2.148027         1.160853         0.221730
 O         1.825398         2.578971         0.522560
 H        -0.461494        -0.917841         0.925374
 H        -0.689445         0.789702         0.345856
 H        -0.606292        -0.595484        -0.765966
 H         2.634614        -1.502962        -1.240680
 H         1.861910        -0.211435        -2.270320
 H         3.943166         1.009491        -1.336402
 H         4.206232        -1.388058         0.698550
 H         4.548241         0.383516         1.043184
 H         1.332533        -0.350880         2.930212
 H         2.243695         2.826922         1.352008
