19
Iteration:  2146
 C        -0.039520        -0.478577         0.594037
 C         1.373651        -0.117723         0.268593
 C         2.226569        -0.933305        -0.677049
 C         3.402229         0.005561        -0.562695
 C         3.843582         0.041895         0.991844
 C         2.404944         0.485320         1.284458
 O         1.751623         0.642417         2.513164
 C         2.176686         1.093474        -0.102810
 O         1.873056         2.426256        -0.617947
 H        -0.787057         0.327852         0.575132
 H        -0.405072        -1.184619        -0.170576
 H        -0.211135        -1.007090         1.588905
 H         2.435643        -1.981124        -0.350009
 H         1.847095        -0.989140        -1.692022
 H         4.121088         0.264485        -1.385860
 H         3.964249        -0.935546         1.234397
 H         4.726920         0.735014         1.336401
 H         2.373505         1.223478         3.042956
 H         1.478772         2.264265        -1.494983
