19
Iteration:  3440
 C        -0.086459        -0.440851         0.540811
 C         1.372177        -0.046240         0.119499
 C         2.245441        -0.738698        -0.992952
 C         3.369885         0.288297        -0.633801
 C         3.820845        -0.114034         0.836722
 C         2.347602         0.253710         1.270507
 O         1.900719         0.280345         2.532686
 C         2.140435         1.175830         0.013193
 O         1.970653         2.584650        -0.116892
 H        -0.067747        -1.515145         0.531950
 H        -0.457746         0.096838         1.485725
 H        -0.932321        -0.081842        -0.179401
 H         2.444904        -1.831598        -0.850382
 H         1.814152        -0.628568        -2.012378
 H         4.081880         0.508026        -1.426233
 H         4.188904        -1.127537         1.078723
 H         4.666982         0.549287         1.239899
 H         0.983424        -0.035688         2.507485
 H         1.029355         2.664043        -0.299453
