19
Iteration:  4014
 C         0.035148        -0.271233         0.440349
 C         1.433442         0.012299        -0.021084
 C         2.159340        -0.421949        -1.245771
 C         3.316663         0.410028        -0.694147
 C         3.743315        -0.359475         0.680885
 C         2.351372         0.127925         1.164910
 O         1.870525        -0.020356         2.533278
 C         2.228046         1.265169         0.253394
 O         1.840254         2.560711         0.291409
 H        -0.777223         0.075787        -0.258567
 H        -0.158772        -1.359847         0.595291
 H        -0.151351         0.298923         1.338069
 H         2.185159        -1.556917        -1.207080
 H         1.648797        -0.127336        -2.194944
 H         4.056200         1.005000        -1.226777
 H         3.819166        -1.437744         0.524289
 H         4.705143         0.047161         1.257425
 H         1.920322        -0.973040         2.804922
 H         2.369490         3.194240         0.809835
