19
Iteration:  1334charge 0 multiplicity 1
 C        -0.018841        -0.494327         0.119203
 C         1.438407        -0.197301         0.195061
 C         2.302583        -0.884473        -0.812457
 C         3.376087         0.146175        -0.449341
 C         3.788194        -0.154906         1.058107
 C         2.352691         0.411775         1.399609
 O         1.853077         0.960722         2.632719
 C         2.195493         1.035050         0.077360
 O         1.804680         2.261371        -0.518321
 H        -0.621395         0.400015         0.143555
 H        -0.318789        -0.950076        -0.838290
 H        -0.424481        -1.280463         0.783649
 H         2.608299        -2.033784        -0.861602
 H         2.037596        -0.814678        -1.885786
 H         4.129256         0.685855        -1.121614
 H         4.170907        -1.157623         1.269825
 H         4.585736         0.465696         1.380093
 H         0.895329         0.955470         2.630644
 H         1.402705         2.808011         0.193226
