19
Iteration:  1581
 C         0.008917        -0.551188         0.428339
 C         1.377257        -0.161351         0.111877
 C         2.318504        -1.039473        -0.714109
 C         3.368887         0.155838        -0.507070
 C         3.811393        -0.131921         1.020037
 C         2.361237         0.506352         1.288199
 O         1.759298         0.927440         2.520682
 C         2.174244         1.111177        -0.006157
 O         1.758866         2.362773        -0.535055
 H        -0.672654         0.292331         0.647039
 H        -0.509225        -0.982532        -0.404164
 H        -0.017059        -1.360206         1.130350
 H         2.586242        -2.078205        -0.413158
 H         1.888867        -1.017785        -1.758526
 H         4.365878         0.329409        -1.128369
 H         4.026490        -1.166809         1.201444
 H         4.519505         0.474364         1.549734
 H         2.109719         0.242898         3.087439
 H         2.552128         2.936667        -0.574115
