19
Iteration:  3387
 C        -0.152849        -0.452626         0.147211
 C         1.341743        -0.204874         0.118583
 C         2.187289        -0.733240        -0.944024
 C         3.289334         0.313607        -0.562176
 C         3.741841        -0.198183         0.738098
 C         2.365729         0.275717         1.317206
 O         2.187352         0.599945         2.697825
 C         2.152807         1.066375         0.067860
 O         1.830210         2.489585         0.025265
 H        -0.357895        -1.330017        -0.426438
 H        -0.491293        -0.803672         1.197489
 H        -0.702626         0.430102        -0.187795
 H         2.400727        -1.825164        -0.825397
 H         1.827878        -0.382560        -1.937267
 H         3.921920         0.608073        -1.372605
 H         4.123283        -1.167682         0.747075
 H         4.625336         0.405822         1.230830
 H         1.387568         0.082592         2.879063
 H         2.080870         2.724911        -0.874955
