19
Iteration:  2344charge 0 multiplicity 1
 C        -0.021172        -0.514750         0.588996
 C         1.373919        -0.135208         0.157136
 C         2.326993        -1.104916        -0.690642
 C         3.289186         0.157011        -0.521731
 C         3.682605         0.031856         0.986405
 C         2.220166         0.399416         1.296997
 O         1.893470         0.750410         2.560792
 C         2.211891         1.126369        -0.142862
 O         1.997968         2.437526        -0.571534
 H        -0.354542        -0.105808         1.517228
 H        -0.857610        -0.278375        -0.005785
 H        -0.141397        -1.638556         0.693603
 H         2.864212        -2.018767        -0.431058
 H         2.029758        -1.135012        -1.719003
 H         3.971296         0.355128        -1.355930
 H         4.062249        -0.978864         1.366333
 H         4.462924         0.820254         1.418976
 H         0.982017         1.055453         2.694142
 H         1.919801         2.379928        -1.532181
