19
Iteration:  4903
 C        -0.170368        -0.008451         0.163523
 C         1.273211         0.186689        -0.060557
 C         2.070083        -0.023338        -1.350809
 C         3.228462         0.647500        -0.674873
 C         3.753454        -0.365615         0.370879
 C         2.372344        -0.201373         1.155624
 O         2.131227        -0.657478         2.480483
 C         2.236714         1.191071         0.495237
 O         2.025912         2.572196         0.941982
 H        -0.725739         0.902548         0.286914
 H        -0.471614        -0.577577        -0.739748
 H        -0.398318        -0.680876         1.001666
 H         2.293001        -0.934985        -1.878190
 H         1.692535         0.693587        -2.181873
 H         3.845928         1.347136        -1.197474
 H         4.218582        -1.207682        -0.119313
 H         4.569077        -0.029736         1.001499
 H         1.606082        -1.492557         2.354409
 H         1.901028         3.168404         0.139720
