19
Iteration:  4821charge 0 multiplicity 1
 C        -0.152441        -0.014338         0.252605
 C         1.335575         0.057591        -0.041461
 C         2.071160        -0.052096        -1.377283
 C         3.348930         0.609981        -0.642864
 C         3.765444        -0.423283         0.388487
 C         2.423764        -0.117383         1.088829
 O         2.005827        -0.377747         2.353731
 C         2.242069         1.204335         0.406594
 O         1.978325         2.458501         0.961185
 H        -0.276822        -0.653115         1.164749
 H        -0.601592         0.935113         0.538372
 H        -0.722671        -0.492729        -0.554797
 H         2.398320        -1.071170        -1.811479
 H         1.687235         0.715108        -1.996359
 H         4.150154         1.153635        -1.160977
 H         3.887027        -1.426529        -0.071305
 H         4.604324        -0.055931         1.033694
 H         1.902853        -1.322043         2.464208
 H         1.023120         2.696928         1.056015
