19
Iteration:  4442
 C        -0.134838        -0.021495         0.298631
 C         1.376378         0.004122         0.025849
 C         2.235039        -0.225439        -1.302246
 C         3.356871         0.507839        -0.707022
 C         3.725404        -0.355511         0.469314
 C         2.453260        -0.018041         1.126554
 O         2.039573        -0.237840         2.501214
 C         2.222317         1.190486         0.318767
 O         1.736224         2.419064         0.679451
 H        -0.560928         0.881971        -0.113409
 H        -0.690035        -0.893999        -0.048335
 H        -0.156467         0.262243         1.359174
 H         2.590367        -1.138492        -1.796960
 H         1.770675         0.437955        -1.995740
 H         3.958467         0.915025        -1.453744
 H         3.798521        -1.443554         0.266828
 H         4.540945        -0.052741         1.202490
 H         1.277198        -0.886851         2.487630
 H         2.448118         2.981709         1.038934
