19
Iteration:  1058charge 0 multiplicity 1
 C         0.001295        -0.369323         0.266570
 C         1.480295        -0.157573         0.247923
 C         2.310278        -0.856820        -0.831304
 C         3.411057         0.215360        -0.448699
 C         3.618257        -0.149356         1.100510
 C         2.258790         0.433663         1.424298
 O         1.707137         0.585499         2.686002
 C         2.335004         1.114200        -0.043161
 O         1.966621         2.339664        -0.669198
 H        -0.616854         0.546877         0.525467
 H        -0.307776        -0.708357        -0.754754
 H        -0.314034        -1.239578         0.853246
 H         2.763672        -1.844713        -0.721057
 H         1.863922        -0.703696        -1.767669
 H         4.224131         0.506950        -1.090066
 H         3.683448        -1.312387         1.169024
 H         4.480406         0.315216         1.581278
 H         1.652119         1.503760         2.869785
 H         1.016145         2.340616        -0.954754
