19
Iteration:   206
 C        -0.041894        -0.129336         0.153449
 C         1.423027        -0.175861         0.222133
 C         2.271266        -0.981663        -0.781788
 C         3.365581         0.074371        -0.428060
 C         3.788542        -0.102970         0.976431
 C         2.351715         0.384579         1.404419
 O         1.854600         0.717655         2.636015
 C         2.218304         1.079171         0.027984
 O         1.861347         2.322688        -0.470040
 H        -0.661450         0.413937         0.911566
 H        -0.400713         0.176374        -0.882508
 H        -0.408710        -1.210896         0.193429
 H         2.487519        -2.043953        -0.538104
 H         1.949780        -0.929001        -1.777214
 H         4.228851         0.145726        -1.022737
 H         4.172292        -1.121213         1.424241
 H         4.554489         0.654459         1.196853
 H         1.004029         0.292558         2.773265
 H         1.307390         2.173831        -1.249188
