19
Iteration:  4923charge 0 multiplicity 1
 C        -0.231387        -0.216499         0.160612
 C         1.279269         0.107312         0.002721
 C         1.996541         0.092477        -1.319613
 C         3.267075         0.695156        -0.617508
 C         3.713115        -0.397357         0.460280
 C         2.396794        -0.111927         1.054803
 O         2.086861        -0.576924         2.333371
 C         2.259612         1.260434         0.419121
 O         2.194612         2.555697         0.973283
 H        -0.788662         0.662375        -0.190089
 H        -0.484606        -1.141882        -0.401952
 H        -0.558469        -0.345338         1.208850
 H         1.981704        -0.994530        -1.705859
 H         1.535674         0.835509        -2.073206
 H         4.156213         1.162922        -1.058354
 H         3.947077        -1.453691         0.199850
 H         4.664050        -0.027433         1.002496
 H         1.691347        -1.492260         2.241621
 H         1.400265         2.928751         0.551004
