19
Iteration:  2090
 C        -0.070760        -0.430614         0.559726
 C         1.408518        -0.315817         0.145136
 C         2.333085        -1.065711        -0.768103
 C         3.408637         0.013075        -0.518772
 C         3.769382        -0.080431         0.989357
 C         2.347643         0.410102         1.197212
 O         1.887326         1.027818         2.320131
 C         2.226272         0.993901        -0.170672
 O         1.735116         2.380037        -0.124476
 H        -0.392565         0.605247         0.824262
 H        -0.745418        -0.862291        -0.220789
 H        -0.121592        -1.035428         1.477519
 H         2.730043        -2.058286        -0.493233
 H         1.995429        -1.005203        -1.806199
 H         4.288618         0.469342        -1.084279
 H         4.136108        -0.965108         1.322210
 H         4.605481         0.653280         1.137400
 H         1.500267         1.874689         2.006493
 H         1.170405         2.475036        -0.928500
