19
Iteration:  3648
 C        -0.077841        -0.401497         0.400368
 C         1.359146        -0.055304         0.056509
 C         2.176521        -0.639803        -1.143631
 C         3.368347         0.348121        -0.578278
 C         3.732079        -0.281552         0.818584
 C         2.430329         0.276214         1.252104
 O         1.992460         0.210888         2.593407
 C         2.162605         1.248220         0.109718
 O         1.914488         2.586864         0.047115
 H        -0.302248        -1.413660         0.026375
 H        -0.155070        -0.434907         1.514333
 H        -0.901361         0.265847        -0.019670
 H         2.201877        -1.727601        -1.241699
 H         1.720595        -0.213232        -2.033383
 H         4.063662         0.777483        -1.272783
 H         3.858929        -1.395052         0.830180
 H         4.538644         0.214129         1.465064
 H         1.577317        -0.665530         2.741246
 H         1.284673         2.870844        -0.657675
