19
Iteration:   247charge 0 multiplicity 1
 C        -0.031929        -0.406803         0.464290
 C         1.358202        -0.159480         0.053251
 C         2.370452        -0.934528        -0.824024
 C         3.433606         0.057689        -0.381308
 C         3.583663        -0.245388         1.074786
 C         2.240558         0.314956         1.193503
 O         1.817882         0.929641         2.330578
 C         2.198492         1.089560        -0.151705
 O         1.995420         2.438709        -0.167279
 H        -0.285398         0.458147         1.090543
 H        -0.805817        -0.529731        -0.295261
 H        -0.030799        -1.340409         1.096046
 H         2.613166        -1.966615        -0.489908
 H         2.087980        -1.121184        -1.923559
 H         4.290192         0.434982        -0.950809
 H         3.928687        -1.222267         1.353239
 H         4.396215         0.396074         1.411703
 H         0.926960         0.695486         2.621341
 H         2.230141         2.691944        -1.104170
