19
Iteration:  1885charge 0 multiplicity 1
 C        -0.117071        -0.546406         0.284787
 C         1.332191        -0.251702         0.126081
 C         2.279892        -1.032513        -0.598211
 C         3.292437         0.153682        -0.522315
 C         3.852322        -0.119803         0.905945
 C         2.408281         0.431214         1.302991
 O         2.001263         0.971811         2.513385
 C         2.124470         1.034675        -0.039388
 O         1.821121         2.389868        -0.307800
 H        -0.681046         0.394094        -0.008470
 H        -0.358737        -1.108865        -0.651715
 H        -0.620915        -1.115152         1.132162
 H         2.566011        -1.940376        -0.016591
 H         1.885714        -1.327697        -1.610719
 H         3.823559         0.482910        -1.479507
 H         4.256665        -1.092993         1.289353
 H         4.657909         0.678810         1.143777
 H         2.569832         1.759767         2.539522
 H         0.876102         2.430191        -0.570418
