19
Iteration:  2399
 C        -0.009876        -0.257435         0.380583
 C         1.488952        -0.161994         0.227047
 C         2.276314        -0.981086        -0.767366
 C         3.477988         0.111548        -0.554331
 C         3.731793        -0.102411         0.955640
 C         2.380800         0.365928         1.365344
 O         1.870044         0.820984         2.587776
 C         2.283435         1.075159        -0.031645
 O         1.650335         2.227889        -0.480282
 H        -0.451322         0.724503         0.240304
 H        -0.401382        -0.855478        -0.399486
 H        -0.366747        -0.557890         1.430609
 H         2.634981        -1.977160        -0.418044
 H         1.885623        -0.930899        -1.766505
 H         4.314407         0.310962        -1.273536
 H         4.119777        -1.049389         1.510558
 H         4.645537         0.599766         1.325701
 H         1.076372         1.292271         2.329121
 H         0.867397         2.034476        -1.029213
