19
Iteration:  1423
 C        -0.068500        -0.444541         0.523630
 C         1.422440        -0.236084         0.233504
 C         2.372157        -0.945207        -0.756110
 C         3.482695         0.214663        -0.498443
 C         3.793516        -0.006566         1.061501
 C         2.362672         0.450034         1.295751
 O         1.587366         0.680762         2.394652
 C         2.188295         1.043816        -0.055365
 O         1.915712         2.363352        -0.573870
 H        -0.403539         0.468626         0.909693
 H        -0.643602        -0.534209        -0.378266
 H        -0.215586        -1.358818         1.069911
 H         2.634792        -2.042170        -0.751362
 H         1.952003        -0.870107        -1.757900
 H         4.148805         0.460420        -1.260212
 H         4.129992        -1.004560         1.258422
 H         4.562674         0.496252         1.495289
 H         2.112771         0.986513         3.139832
 H         1.228154         2.750085         0.044064
