19
Iteration:   888charge 0 multiplicity 1
 C         0.000527        -0.315390         0.276509
 C         1.420005        -0.063636         0.213959
 C         2.287075        -0.862469        -0.823992
 C         3.461266         0.234636        -0.391011
 C         3.765660        -0.200800         1.092954
 C         2.308939         0.286766         1.436061
 O         1.675079         0.595254         2.687148
 C         2.263506         1.174992         0.003627
 O         1.790443         2.291396        -0.743407
 H        -0.522038         0.419694         0.832529
 H        -0.378497        -0.225971        -0.726484
 H        -0.153731        -1.326668         0.670620
 H         2.583174        -1.910595        -0.601782
 H         1.943086        -0.737856        -1.896764
 H         4.141294         0.439192        -1.216703
 H         3.959035        -1.208655         1.387169
 H         4.438136         0.444110         1.667240
 H         2.164304         1.320531         3.067682
 H         2.479508         2.516876        -1.409173
