19
Iteration:  2769
 C        -0.157830        -0.446102         0.496214
 C         1.353561        -0.269384         0.162706
 C         2.347964        -0.905108        -0.921719
 C         3.447567         0.171355        -0.576723
 C         3.747450        -0.124654         0.996242
 C         2.278924         0.278511         1.191733
 O         1.828574         0.752127         2.405002
 C         2.201860         1.096553        -0.152622
 O         1.856962         2.463099        -0.155059
 H        -0.073709        -1.399185         1.143381
 H        -0.488117         0.336357         1.143069
 H        -0.752432        -0.636532        -0.427018
 H         2.696077        -1.915586        -0.700507
 H         1.896933        -0.736961        -1.917047
 H         4.184427         0.416046        -1.370254
 H         4.324760        -1.032009         1.248490
 H         4.276684         0.826561         1.391638
 H         2.457073         1.128558         3.014599
 H         2.065862         2.924928         0.683461
