19
Iteration:  2931charge 0 multiplicity 1
 C         0.006467        -0.437019         0.507960
 C         1.412623        -0.150201         0.068668
 C         2.286975        -0.884238        -0.886125
 C         3.385258         0.188731        -0.622153
 C         3.813953        -0.158394         0.890030
 C         2.342070         0.312564         1.245620
 O         1.770507         0.613219         2.490733
 C         2.149560         1.175808        -0.024450
 O         1.762648         2.463008        -0.185651
 H        -0.664567        -0.572023        -0.365983
 H        -0.196778        -1.349363         1.077145
 H        -0.488224         0.297178         1.094534
 H         2.529930        -1.933055        -0.785510
 H         2.017575        -0.706685        -1.949759
 H         4.164798         0.441394        -1.331971
 H         3.960014        -1.255754         1.033920
 H         4.561678         0.521004         1.431721
 H         2.552523         0.777740         3.066978
 H         2.455384         2.965829         0.257523
