19
Iteration:   114
 C        -0.058812        -0.296502         0.340710
 C         1.444441        -0.212071         0.135752
 C         2.274173        -0.934609        -0.816975
 C         3.448627         0.079487        -0.458220
 C         3.815919        -0.183005         1.045247
 C         2.378520         0.365401         1.329790
 O         1.571277         0.878926         2.434593
 C         2.292303         1.056770         0.052180
 O         1.883481         2.357186        -0.377617
 H        -0.268518         0.490994         1.107693
 H        -0.723550        -0.148703        -0.554078
 H        -0.306606        -1.270662         0.839659
 H         2.491568        -1.987560        -0.774530
 H         1.914848        -0.677610        -1.889614
 H         4.205739         0.297927        -1.277301
 H         3.889804        -1.259975         1.373150
 H         4.668579         0.498669         1.362209
 H         1.371413         0.132712         3.011401
 H         2.530933         2.619490        -1.081275
