19
Iteration:  3224charge 0 multiplicity 1
 C        -0.043703        -0.443093         0.444394
 C         1.326124        -0.149471         0.065869
 C         2.207525        -0.790783        -1.054270
 C         3.332668         0.182078        -0.617797
 C         3.749712        -0.201424         0.799401
 C         2.397328         0.276296         1.205981
 O         2.053041         0.515386         2.689429
 C         2.157764         1.183662         0.027013
 O         1.827720         2.568846        -0.028409
 H        -0.750902        -0.126613        -0.308090
 H        -0.324463        -1.540105         0.667510
 H        -0.259399         0.140601         1.326643
 H         2.339660        -1.855791        -0.830434
 H         1.653512        -0.665960        -2.001263
 H         4.124961         0.401763        -1.316142
 H         4.050445        -1.241809         1.059440
 H         4.618904         0.379241         1.252046
 H         1.069340         0.649185         2.657450
 H         2.063861         2.799335        -0.946911
