19
Iteration:  3511
 C        -0.069608        -0.210154         0.181105
 C         1.417002        -0.117878         0.086288
 C         2.137018        -0.694095        -1.021764
 C         3.302522         0.269365        -0.616740
 C         3.751607        -0.195365         0.809224
 C         2.398599         0.197003         1.340497
 O         2.068739         0.423437         2.620107
 C         2.165593         1.125580         0.127254
 O         1.753382         2.417740         0.044778
 H        -0.271180        -0.174543         1.296936
 H        -0.695990         0.383550        -0.495033
 H        -0.348981        -1.228856        -0.039728
 H         2.416404        -1.772171        -1.085757
 H         1.864016        -0.322339        -2.025289
 H         4.212569         0.643460        -1.149754
 H         4.017164        -1.283532         0.941855
 H         4.536719         0.400098         1.325394
 H         2.705273        -0.077715         3.153681
 H         1.374861         2.450322        -0.843725
