19
Iteration:  3855
 C        -0.085507        -0.309249         0.331567
 C         1.331320        -0.069328         0.087195
 C         2.171564        -0.509107        -1.138956
 C         3.285007         0.441231        -0.669416
 C         3.817611        -0.328391         0.616427
 C         2.381857         0.023313         1.227453
 O         1.925531         0.184968         2.578193
 C         2.162725         1.201064         0.209675
 O         1.974446         2.574675         0.167330
 H        -0.420861        -1.337573         0.050293
 H        -0.204902        -0.155988         1.410703
 H        -0.808579         0.480169        -0.068325
 H         2.532309        -1.570151        -1.252643
 H         1.787794        -0.089918        -2.102908
 H         4.052758         0.976333        -1.314186
 H         4.173046        -1.423287         0.766572
 H         4.473567         0.354543         1.144274
 H         1.891725        -0.693698         3.059868
 H         1.552845         2.877440         0.987655
