19
Iteration:  2427charge 0 multiplicity 1
 C        -0.112539        -0.215437         0.197589
 C         1.400377        -0.342996         0.231975
 C         2.321985        -1.067074        -0.754382
 C         3.427350         0.124942        -0.521432
 C         3.799274        -0.050116         1.025139
 C         2.421979         0.447241         1.334735
 O         2.025582         0.807139         2.563919
 C         2.133801         1.005698        -0.018277
 O         1.639887         2.296045        -0.351085
 H        -0.393109         0.546093        -0.675534
 H        -0.489474        -1.235391        -0.128402
 H        -0.465377         0.132432         1.153104
 H         2.774674        -1.981932        -0.303385
 H         2.026192        -1.259780        -1.830978
 H         4.138282         0.449618        -1.254292
 H         4.070208        -0.934965         1.591721
 H         4.500669         0.719252         1.287020
 H         1.647530         1.704901         2.518131
 H         1.038216         2.345895        -1.127568
