19
Iteration:  3356
 C        -0.085657        -0.253260         0.321199
 C         1.399071        -0.160224         0.105646
 C         2.227253        -0.808056        -1.042011
 C         3.386031         0.214983        -0.547237
 C         3.797639        -0.251513         0.845293
 C         2.431863         0.253834         1.224125
 O         2.026093         0.648772         2.501180
 C         2.212301         1.087403         0.008589
 O         1.612048         2.398333         0.143577
 H        -0.406126        -1.047622        -0.387904
 H        -0.376314        -0.698231         1.309502
 H        -0.594752         0.618304         0.036053
 H         2.367314        -1.896050        -1.008099
 H         1.911437        -0.461405        -2.049065
 H         4.104990         0.579779        -1.269102
 H         4.017953        -1.351191         0.860087
 H         4.483252         0.629168         1.166394
 H         1.924238        -0.177202         3.039361
 H         2.132339         3.024971        -0.415210
