19
Iteration:  2712
 C        -0.061558        -0.697149         0.506194
 C         1.303772        -0.173082         0.248613
 C         2.258237        -0.821892        -0.791029
 C         3.381685         0.207945        -0.515423
 C         3.733101        -0.098660         0.868934
 C         2.289970         0.408510         1.261479
 O         1.725530         0.582048         2.520482
 C         2.207189         1.233430        -0.032831
 O         2.142865         2.519124        -0.430154
 H        -0.431821        -1.397357        -0.293352
 H        -0.210074        -1.239397         1.468769
 H        -0.872390        -0.029762         0.580259
 H         2.471949        -1.893161        -0.683692
 H         1.769438        -0.758132        -1.785949
 H         4.159675         0.365173        -1.296633
 H         4.020447        -1.077526         0.798866
 H         4.647104         0.552335         1.229117
 H         2.199011         1.294616         3.024160
 H         1.207852         2.832281        -0.469989
