19
Iteration:   695
 C        -0.144031        -0.424115         0.354311
 C         1.419774        -0.205239         0.171436
 C         2.326735        -1.047937        -0.740026
 C         3.387178         0.141194        -0.471313
 C         3.812241         0.078159         1.078111
 C         2.321246         0.406950         1.246180
 O         1.666075         0.847351         2.373571
 C         2.209593         1.014256        -0.134233
 O         2.094229         2.341716        -0.289517
 H        -0.586644        -0.310496         1.362373
 H        -0.694003         0.094204        -0.447145
 H        -0.284880        -1.534660         0.278456
 H         2.461771        -2.161007        -0.429098
 H         1.972786        -1.066544        -1.797818
 H         4.000068         0.302376        -1.380492
 H         4.225278        -0.838720         1.447758
 H         4.481671         0.926026         1.297980
 H         0.852368         0.372485         2.328553
 H         1.622948         2.612168         0.504736
