19
Iteration:  2089charge 0 multiplicity 1
 C        -0.072222        -0.434110         0.556303
 C         1.407057        -0.311487         0.146583
 C         2.329093        -1.062677        -0.769756
 C         3.410237         0.000635        -0.512945
 C         3.769829        -0.068518         0.985245
 C         2.348402         0.399502         1.207614
 O         1.893918         1.031118         2.312055
 C         2.227557         1.002600        -0.169123
 O         1.732689         2.379676        -0.121961
 H        -0.399138         0.601174         0.828532
 H        -0.722414        -0.857409        -0.246034
 H        -0.127912        -1.036057         1.445151
 H         2.726543        -2.048458        -0.476683
 H         1.982806        -1.046939        -1.810709
 H         4.272518         0.491545        -1.089348
 H         4.145415        -0.991072         1.334898
 H         4.591174         0.643090         1.129787
 H         1.487218         1.860759         2.015851
 H         1.178103         2.470849        -0.927884
