19
Iteration:  2983
 C        -0.118148        -0.527022         0.158703
 C         1.351783        -0.171719         0.176665
 C         2.176802        -0.896670        -0.908989
 C         3.262246         0.122378        -0.587053
 C         3.830440        -0.095423         0.797998
 C         2.425635         0.291241         1.321760
 O         1.969004         0.784165         2.500604
 C         2.165171         1.070184         0.009657
 O         1.912305         2.450070         0.041009
 H        -0.300702        -1.592303        -0.093057
 H        -0.596996        -0.400205         1.222813
 H        -0.900215         0.015964        -0.380804
 H         2.573483        -1.925339        -0.626554
 H         1.760201        -0.668303        -1.918512
 H         3.989145         0.594039        -1.260456
 H         4.467635        -1.084081         1.068006
 H         4.533256         0.660292         1.063393
 H         2.410900         1.629949         2.725414
 H         1.039558         2.478172         0.485811
