19
Iteration:  4824charge 0 multiplicity 1
 C        -0.139242         0.017788         0.272837
 C         1.350367         0.074574        -0.051514
 C         2.069984        -0.065223        -1.412433
 C         3.336403         0.627357        -0.635899
 C         3.769381        -0.434390         0.396985
 C         2.425472        -0.106040         1.080259
 O         2.002915        -0.389274         2.374386
 C         2.275757         1.209833         0.396123
 O         1.945074         2.414727         0.961719
 H        -0.245319        -0.624797         1.165471
 H        -0.640233         0.974305         0.476996
 H        -0.707187        -0.541124        -0.487972
 H         2.302132        -1.066747        -1.711972
 H         1.737543         0.782298        -2.059841
 H         4.112925         1.198991        -1.255221
 H         3.874772        -1.457514         0.073289
 H         4.651146        -0.012079         1.008364
 H         1.876304        -1.381424         2.458247
 H         1.024947         2.781010         0.998618
