19
Iteration:  1470charge 0 multiplicity 1
 C        -0.120359        -0.553149         0.238046
 C         1.354387        -0.194510         0.158763
 C         2.345754        -0.921367        -0.730254
 C         3.436255         0.143203        -0.380558
 C         3.696347        -0.060805         1.092630
 C         2.320215         0.453514         1.296758
 O         1.941164         0.864414         2.598171
 C         2.251085         1.132171        -0.019126
 O         1.695880         2.323679        -0.566605
 H        -0.570163        -0.034985         1.108648
 H        -0.680379        -0.198478        -0.609814
 H        -0.203945        -1.621752         0.256828
 H         2.610929        -1.979343        -0.521610
 H         2.142083        -0.929120        -1.817215
 H         4.346013         0.432543        -0.989035
 H         3.838853        -1.031386         1.458710
 H         4.432697         0.543961         1.503043
 H         2.441596         0.187732         3.140248
 H         2.234756         2.615677        -1.340131
