19
Iteration:  1743
 C        -0.095267        -0.479566         0.263410
 C         1.384287        -0.246769         0.253525
 C         2.285090        -1.026536        -0.784839
 C         3.238587         0.152831        -0.521943
 C         3.803959        -0.012785         0.978250
 C         2.423807         0.498868         1.365217
 O         1.984098         0.978751         2.692646
 C         2.118847         1.057209        -0.003742
 O         1.860006         2.250666        -0.607926
 H        -0.573886         0.212482         1.033179
 H        -0.524414        -0.098537        -0.672213
 H        -0.260326        -1.592553         0.367704
 H         2.682172        -1.914548        -0.283209
 H         1.774572        -1.232190        -1.761930
 H         3.973870         0.303606        -1.438460
 H         4.168269        -1.041715         1.222082
 H         4.500590         0.705874         1.217444
 H         2.106417         0.208220         3.272453
 H         0.940491         2.443206        -0.343426
