19
Iteration:   756charge 0 multiplicity 1
 C        -0.102525        -0.672741         0.194961
 C         1.354691        -0.268878         0.104896
 C         2.421692        -0.882523        -0.887453
 C         3.439416         0.107537        -0.380912
 C         3.578362        -0.199374         1.102969
 C         2.187055         0.358033         1.292740
 O         1.917437         1.207786         2.379436
 C         2.181464         1.031338        -0.019619
 O         1.915852         2.347430        -0.236015
 H        -0.772807         0.033601         0.659050
 H        -0.486096        -0.877446        -0.814030
 H        -0.171886        -1.644384         0.666523
 H         2.471563        -1.942669        -0.793398
 H         2.019269        -0.551926        -1.843789
 H         4.222525         0.351571        -1.020532
 H         3.726564        -1.288150         1.349680
 H         4.321630         0.444508         1.627621
 H         2.539756         0.991143         3.058899
 H         2.270427         2.904989         0.487407
