19
Iteration:   752charge 0 multiplicity 1
 C        -0.104362        -0.719058         0.186850
 C         1.369442        -0.247573         0.101359
 C         2.421067        -0.885321        -0.868402
 C         3.432584         0.124856        -0.375807
 C         3.585063        -0.214427         1.112671
 C         2.195462         0.409112         1.268959
 O         1.922244         1.206415         2.353444
 C         2.132742         1.042508        -0.030284
 O         1.939962         2.331035        -0.204828
 H        -0.774592         0.009634         0.690451
 H        -0.557501        -0.763991        -0.826083
 H        -0.197835        -1.710345         0.645080
 H         2.392484        -1.995677        -0.632741
 H         2.033801        -0.537844        -1.912436
 H         4.253439         0.367532        -1.138322
 H         3.645351        -1.236625         1.471517
 H         4.389479         0.336133         1.548234
 H         2.517871         0.887389         3.100488
 H         2.314957         2.909644         0.494590
