19
Iteration:  1159charge 0 multiplicity 1
 C        -0.095992        -0.538876         0.146044
 C         1.345044        -0.153359         0.107500
 C         2.354955        -0.845148        -0.783021
 C         3.473998         0.081985        -0.382742
 C         3.803909        -0.077293         1.097353
 C         2.274702         0.343103         1.331540
 O         1.793645         0.983470         2.464887
 C         2.214383         1.052160        -0.037933
 O         1.843517         2.274453        -0.354456
 H        -0.639656         0.096735         0.874917
 H        -0.591636        -0.591534        -0.864373
 H        -0.184625        -1.552258         0.640083
 H         2.354950        -1.900523        -0.466640
 H         2.196859        -0.721657        -1.887262
 H         4.360057         0.355379        -0.935857
 H         4.063070        -1.136604         1.461400
 H         4.511522         0.604460         1.567113
 H         1.021294         0.394899         2.727917
 H         2.458253         2.953884        -0.064135
