19
Iteration:  2547
 C        -0.027490        -0.597209         0.538365
 C         1.394529        -0.213661         0.159730
 C         2.266416        -0.910067        -0.899106
 C         3.329406         0.142593        -0.528086
 C         3.712546        -0.140143         0.968918
 C         2.339693         0.464339         1.292237
 O         1.755309         0.683751         2.570176
 C         2.197327         1.166799        -0.088789
 O         1.990572         2.498910        -0.362910
 H         0.041351        -1.212504         1.426776
 H        -0.672957         0.221639         0.839326
 H        -0.486349        -1.078403        -0.285395
 H         2.649111        -1.927796        -0.846713
 H         2.113129        -0.712752        -1.968725
 H         4.172060         0.250751        -1.187967
 H         3.808243        -1.197928         1.221014
 H         4.569222         0.575911         1.355905
 H         1.693855         1.639984         2.705143
 H         1.826264         2.541802        -1.320612
