19
Iteration:  1582
 C         0.005825        -0.555001         0.427693
 C         1.373578        -0.160522         0.120718
 C         2.311296        -1.034445        -0.710755
 C         3.371949         0.156485        -0.507104
 C         3.809866        -0.136576         1.022846
 C         2.369240         0.508415         1.288971
 O         1.762408         0.922687         2.520100
 C         2.167655         1.112556        -0.006946
 O         1.765438         2.364922        -0.547394
 H        -0.698805         0.269947         0.621144
 H        -0.516170        -1.019396        -0.414532
 H        -0.020377        -1.380866         1.134321
 H         2.603880        -2.075713        -0.446779
 H         1.891428        -0.991378        -1.748683
 H         4.333577         0.339319        -1.133604
 H         4.011880        -1.130229         1.225531
 H         4.523946         0.485907         1.586773
 H         2.143569         0.235575         3.074701
 H         2.554698         2.960708        -0.526594
