19
Iteration:  1460charge 0 multiplicity 1
 C        -0.036254        -0.511083         0.293746
 C         1.400386        -0.171516         0.079545
 C         2.362654        -0.936975        -0.808673
 C         3.468276         0.151813        -0.447249
 C         3.669126        -0.066244         1.087082
 C         2.267821         0.407476         1.353385
 O         1.879332         0.871619         2.651363
 C         2.174286         1.115514         0.002213
 O         1.791180         2.308404        -0.558223
 H        -0.523976        -0.050645         1.214254
 H        -0.693384        -0.351890        -0.576520
 H        -0.107689        -1.591741         0.516555
 H         2.346569        -2.002001        -0.589853
 H         1.987669        -0.689844        -1.827402
 H         4.274659         0.525719        -1.201447
 H         3.948026        -1.051348         1.435217
 H         4.248322         0.745381         1.600699
 H         2.493462         0.496677         3.341834
 H         1.818097         2.202640        -1.554584
