19
Iteration:  3101
 C        -0.032088        -0.361304         0.421573
 C         1.352401        -0.063385         0.144849
 C         2.246675        -0.758519        -0.931951
 C         3.343837         0.212001        -0.614394
 C         3.735286        -0.098300         0.852220
 C         2.378265         0.325672         1.337965
 O         1.976532         0.305790         2.661727
 C         2.104378         1.182034         0.081820
 O         1.771013         2.427036        -0.339519
 H        -0.547642         0.188202         1.137651
 H        -0.580803        -0.190425        -0.537050
 H        -0.288407        -1.414862         0.716075
 H         2.588149        -1.777706        -0.846294
 H         1.774052        -0.513229        -1.885204
 H         4.005549         0.756988        -1.321508
 H         3.893581        -1.170941         0.904322
 H         4.613168         0.453960         1.376872
 H         2.611591         0.940230         3.096757
 H         2.615336         2.706384        -0.725821
