19
Iteration:  4840charge 0 multiplicity 1
 C        -0.035034         0.112923         0.343571
 C         1.354491         0.197543        -0.119968
 C         2.090075        -0.032591        -1.436086
 C         3.293038         0.609894        -0.765307
 C         3.767440        -0.412860         0.475576
 C         2.450295        -0.124215         1.121762
 O         2.019260        -0.450729         2.413736
 C         2.296115         1.162883         0.408375
 O         1.811895         2.324922         1.002363
 H        -0.178103        -0.002989         1.427127
 H        -0.516457         1.117903         0.172457
 H        -0.558039        -0.601712        -0.307169
 H         2.275490        -1.090451        -1.840679
 H         1.638864         0.460527        -2.320803
 H         4.043419         1.215055        -1.188659
 H         4.042743        -1.451107         0.073894
 H         4.517045         0.015610         1.071557
 H         1.734127        -1.386448         2.378066
 H         1.313662         2.517323         0.150106
