19
Iteration:  2554charge 0 multiplicity 1
 C        -0.065159        -0.599010         0.487797
 C         1.366836        -0.203649         0.146593
 C         2.279420        -0.925104        -0.836375
 C         3.349432         0.147118        -0.521946
 C         3.709627        -0.120647         0.914114
 C         2.321295         0.464009         1.254265
 O         1.775792         0.699689         2.625961
 C         2.283047         1.110323        -0.046621
 O         1.962607         2.507647        -0.358330
 H         0.015830        -1.158656         1.424777
 H        -0.695169         0.336960         0.521471
 H        -0.383445        -1.241285        -0.414854
 H         2.667710        -1.985777        -0.864974
 H         1.794598        -0.753217        -1.822524
 H         4.076758         0.460617        -1.277958
 H         3.853784        -1.163266         1.159193
 H         4.616803         0.472618         1.331210
 H         1.737648         1.673565         2.789478
 H         1.766005         2.539446        -1.323749
