19
Iteration:  4488
 C        -0.206943        -0.115407         0.054194
 C         1.291716        -0.029958        -0.024020
 C         2.146696        -0.215847        -1.292151
 C         3.280342         0.543577        -0.718894
 C         3.688083        -0.342020         0.500912
 C         2.396025        -0.023672         1.108893
 O         2.106941        -0.133366         2.532929
 C         2.177650         1.141708         0.345328
 O         1.998202         2.498894         0.831126
 H        -0.622926        -0.455546        -0.873105
 H        -0.395153        -1.001478         0.666377
 H        -0.761415         0.806365         0.312902
 H         2.263307        -1.262872        -1.520934
 H         1.558761         0.213784        -2.082835
 H         4.180677         0.976447        -1.168182
 H         3.930236        -1.402643         0.234196
 H         4.516576         0.277776         0.890931
 H         2.476077        -0.972725         2.840740
 H         2.094539         2.431220         1.781350
