19
Iteration:  3364
 C        -0.179669        -0.332875         0.297640
 C         1.394743        -0.144128         0.104619
 C         2.247031        -0.782095        -1.058861
 C         3.372205         0.186043        -0.604871
 C         3.782297        -0.234978         0.842921
 C         2.420495         0.220773         1.280445
 O         2.095936         0.661168         2.497484
 C         2.224283         1.082988         0.086192
 O         1.629158         2.453789         0.114308
 H        -0.345534        -1.063595        -0.437721
 H        -0.694230        -0.707082         1.264912
 H        -0.670488         0.616179        -0.039104
 H         2.525797        -1.869966        -0.972323
 H         1.729679        -0.498098        -2.006367
 H         4.165543         0.641610        -1.164816
 H         4.229834        -1.157581         0.994856
 H         4.643276         0.335529         1.366351
 H         1.787705        -0.155457         2.943787
 H         2.088916         3.043889        -0.531352
