19
Iteration:  4427
 C        -0.033418         0.008999         0.393747
 C         1.417776        -0.048210        -0.040714
 C         2.103222        -0.248819        -1.371342
 C         3.327247         0.623588        -0.627580
 C         3.760616        -0.421212         0.564081
 C         2.390638        -0.015363         1.180512
 O         2.021566        -0.313375         2.461658
 C         2.302029         1.223213         0.302974
 O         1.728235         2.482832         0.581345
 H        -0.565546         0.995372         0.162423
 H        -0.595595        -0.738845        -0.240861
 H        -0.249467        -0.350289         1.422617
 H         2.207674        -1.395812        -1.568880
 H         1.646215         0.275841        -2.284475
 H         4.238393         1.204675        -1.026215
 H         4.017899        -1.444545         0.212658
 H         4.718532        -0.065705         0.983916
 H         1.194671        -0.788985         2.474572
 H         2.375388         3.078884         0.948730
