19
Iteration:  4172charge 0 multiplicity 1
 C        -0.078349        -0.218236         0.414793
 C         1.330528         0.031920        -0.048145
 C         2.100713        -0.275451        -1.332511
 C         3.376557         0.442168        -0.577154
 C         3.798703        -0.381222         0.655517
 C         2.482192         0.077827         1.255362
 O         1.907931        -0.156251         2.512757
 C         2.265235         1.245635         0.271490
 O         1.769134         2.542725         0.299794
 H        -0.248726         0.617095         1.081691
 H        -0.814927        -0.163844        -0.384285
 H        -0.218191        -1.166917         0.997162
 H         2.299410        -1.324415        -1.611285
 H         1.722320         0.204473        -2.248734
 H         4.169763         0.923239        -1.133001
 H         3.916419        -1.460333         0.284870
 H         4.687347        -0.074080         1.112371
 H         2.109138        -0.955461         3.014835
 H         2.431183         3.103966         0.796760
