19
Iteration:  2222
 C         0.036807        -0.239002         0.456390
 C         1.511157        -0.228107         0.234827
 C         2.245710        -1.075279        -0.751119
 C         3.428715         0.058430        -0.522198
 C         3.843210        -0.041801         0.979749
 C         2.402445         0.476096         1.317084
 O         1.771928         0.804057         2.473793
 C         2.235940         1.072937        -0.080468
 O         1.656461         2.237143        -0.429171
 H        -0.357797         0.417127         1.209831
 H        -0.462823         0.069257        -0.464600
 H        -0.428485        -1.229933         0.652450
 H         2.518484        -2.095745        -0.448970
 H         1.726174        -1.133091        -1.687378
 H         4.251950         0.168540        -1.231775
 H         4.074269        -0.902027         1.598431
 H         4.522353         0.840126         1.017703
 H         2.073224         1.679040         2.736988
 H         0.978801         2.214656        -1.138143
