19
Iteration:  2279charge 0 multiplicity 1
 C        -0.070232        -0.476974         0.429974
 C         1.372940        -0.277517         0.152951
 C         2.375389        -1.113968        -0.716187
 C         3.358774         0.101092        -0.515443
 C         3.741682        -0.044593         0.985302
 C         2.290304         0.375963         1.262822
 O         1.941285         1.055138         2.426492
 C         2.159478         1.014160        -0.059388
 O         1.837104         2.344186        -0.284560
 H        -0.237218        -0.403696         1.518408
 H        -0.628851         0.258075        -0.151224
 H        -0.338464        -1.534155         0.056922
 H         2.757796        -2.114919        -0.448240
 H         2.048273        -1.028917        -1.753777
 H         3.953563         0.184505        -1.417596
 H         3.961649        -0.901231         1.477713
 H         4.613048         0.650891         1.358945
 H         1.655538         1.987531         2.197563
 H         1.222998         2.549231        -1.015901
