19
Iteration:  2360
 C        -0.054682        -0.421846         0.643238
 C         1.379918        -0.253828         0.163537
 C         2.366361        -0.946957        -0.788768
 C         3.445832         0.104658        -0.511490
 C         3.688921        -0.034762         1.044980
 C         2.318062         0.510089         1.225380
 O         1.875080         0.715302         2.580613
 C         2.154130         1.093281        -0.118571
 O         1.899994         2.369190        -0.585409
 H        -0.268809         0.348099         1.461233
 H        -0.764160        -0.256841        -0.250160
 H        -0.114189        -1.411093         1.065456
 H         2.468429        -1.994473        -0.424237
 H         1.940673        -1.113065        -1.834337
 H         4.329744         0.336378        -1.121125
 H         3.860926        -1.019694         1.420156
 H         4.320117         0.779792         1.355383
 H         0.933141         1.017742         2.547509
 H         1.518506         2.327896        -1.477363
