19
Iteration:  2804charge 0 multiplicity 1
 C        -0.060108        -0.235661         0.246973
 C         1.432301        -0.146422         0.173816
 C         2.330159        -0.941991        -0.869951
 C         3.403848         0.138347        -0.626352
 C         3.842758        -0.177394         0.829345
 C         2.429971         0.376043         1.337631
 O         1.806615         0.671373         2.583099
 C         2.243228         1.097193        -0.012335
 O         1.598086         2.290241        -0.149207
 H        -0.257486        -0.370242         1.328040
 H        -0.535834         0.670765        -0.049161
 H        -0.616413        -1.085989        -0.257250
 H         2.670195        -1.971938        -0.675157
 H         1.778749        -1.071045        -1.814107
 H         4.139780         0.371588        -1.390477
 H         4.281851        -1.278641         1.006408
 H         4.598323         0.458711         1.281668
 H         2.164126         1.489129         2.943849
 H         2.023939         3.044078         0.306757
