19
Iteration:  2647
 C        -0.120174        -0.153057         0.399250
 C         1.491420        -0.276261         0.212632
 C         2.325177        -0.943283        -0.827011
 C         3.453382         0.206984        -0.552410
 C         3.861015        -0.103423         0.981391
 C         2.389700         0.335129         1.252451
 O         1.807912         0.617023         2.450872
 C         2.256654         1.064634        -0.011616
 O         1.619689         2.341749        -0.239176
 H        -0.504660         0.717660        -0.170140
 H        -0.525964        -1.085363         0.067978
 H        -0.425752        -0.159301         1.426230
 H         2.757790        -1.905752        -0.646718
 H         1.762586        -1.066653        -1.774629
 H         4.264959         0.338067        -1.299491
 H         4.166765        -1.224848         1.090772
 H         4.755974         0.540607         1.544475
 H         1.802430         1.554893         2.675234
 H         1.412331         2.346684        -1.181327
