19
Iteration:  2733
 C         0.012100        -0.637429         0.460081
 C         1.368871        -0.192988         0.144343
 C         2.182312        -0.920379        -0.853124
 C         3.221399         0.223715        -0.623734
 C         3.766973        -0.133541         0.942848
 C         2.422972         0.417228         1.310952
 O         1.678411         0.699419         2.482262
 C         2.156846         1.127024         0.009068
 O         2.150611         2.539174        -0.339827
 H         0.096815        -1.698034        -0.026542
 H        -0.237253        -0.907344         1.582431
 H        -0.892993        -0.178831         0.015204
 H         2.507321        -1.939789        -0.512996
 H         1.800962        -1.021047        -1.895134
 H         3.806739         0.659391        -1.465065
 H         4.121268        -1.006717         1.302838
 H         4.470236         0.780631         1.188174
 H         2.263363         1.010208         3.178913
 H         1.422387         2.860210         0.229606
