19
Iteration:  1265
 C        -0.076591        -0.271906         0.394058
 C         1.424110        -0.272709         0.131568
 C         2.478514        -1.064832        -0.716875
 C         3.448051         0.161605        -0.468064
 C         3.823975         0.104767         1.038210
 C         2.341452         0.469319         1.251835
 O         1.515529         0.611303         2.446631
 C         2.194652         1.038797        -0.052342
 O         1.901977         2.352234        -0.394215
 H        -0.288465         0.395101         1.244137
 H        -0.535877         0.227020        -0.462196
 H        -0.607097        -1.181150         0.469238
 H         2.843689        -2.048100        -0.427636
 H         1.985341        -1.272826        -1.624172
 H         4.120207         0.476221        -1.226020
 H         4.099281        -0.810982         1.507181
 H         4.499913         0.890225         1.427765
 H         2.117590         0.466534         3.213566
 H         1.666334         2.429388        -1.335248
