19
Iteration:  1422charge 0 multiplicity 1
 C        -0.062687        -0.439834         0.527022
 C         1.412276        -0.229112         0.233309
 C         2.368724        -0.944817        -0.747349
 C         3.482089         0.215525        -0.498201
 C         3.797659         0.000032         1.060946
 C         2.363246         0.441149         1.291446
 O         1.579818         0.673684         2.389709
 C         2.195189         1.040661        -0.062727
 O         1.909739         2.364778        -0.570607
 H        -0.401832         0.480028         0.901608
 H        -0.654080        -0.546185        -0.384181
 H        -0.193381        -1.362101         1.088547
 H         2.671018        -2.036086        -0.722205
 H         1.950116        -0.886398        -1.754034
 H         4.172960         0.436704        -1.271277
 H         4.140790        -1.032043         1.244310
 H         4.606203         0.500214         1.513495
 H         2.110955         1.011520         3.102754
 H         1.279943         2.786885         0.077391
