19
Iteration:   314
 C        -0.190588        -0.559307         0.343508
 C         1.274876        -0.183086         0.048587
 C         2.306989        -1.000010        -0.821895
 C         3.360618         0.141547        -0.440477
 C         3.690481        -0.067184         1.029420
 C         2.211524         0.331957         1.292476
 O         1.706125         0.896717         2.520291
 C         2.243698         1.074026        -0.054523
 O         2.337897         2.483428        -0.370274
 H        -0.823426         0.335791         0.279423
 H        -0.534800        -1.332088        -0.385033
 H        -0.266267        -1.095308         1.318318
 H         2.422905        -2.103000        -0.552287
 H         1.853205        -1.068230        -1.882484
 H         4.164242         0.607928        -0.903397
 H         4.118025        -1.016012         1.397460
 H         4.349049         0.669221         1.401687
 H         1.992223         0.194929         3.167158
 H         1.457793         2.854560        -0.443144
