19
Iteration:   876charge 0 multiplicity 1
 C        -0.030663        -0.225008         0.308473
 C         1.488385        -0.124411         0.212681
 C         2.329312        -0.817860        -0.763568
 C         3.379542         0.158891        -0.384880
 C         3.729392        -0.087582         1.124625
 C         2.324600         0.424818         1.415679
 O         1.700693         0.406129         2.660763
 C         2.253181         1.148670         0.028283
 O         1.815454         2.272507        -0.819483
 H        -0.468559         0.628135         0.805503
 H        -0.458025        -0.371815        -0.677141
 H        -0.352449        -1.103140         0.861700
 H         2.468830        -1.930575        -0.712651
 H         1.901585        -0.563357        -1.823249
 H         4.205331         0.568063        -0.877518
 H         4.001695        -1.113861         1.247450
 H         4.553609         0.529740         1.367602
 H         1.842398         1.321896         3.072157
 H         2.552247         2.405179        -1.450173
