19
Iteration:  1719
 C        -0.097567        -0.313753         0.329807
 C         1.410880        -0.326441         0.326740
 C         2.379688        -1.014835        -0.716308
 C         3.417894         0.147464        -0.461969
 C         3.774407        -0.066683         0.973865
 C         2.343075         0.391153         1.253930
 O         2.037228         0.952822         2.528329
 C         2.169216         1.021519        -0.077082
 O         1.679844         2.239670        -0.553355
 H        -0.398943         0.548035         0.992458
 H        -0.591392        -0.107734        -0.641391
 H        -0.380210        -1.347032         0.745563
 H         2.528110        -2.082519        -0.454627
 H         1.864728        -0.877550        -1.683832
 H         4.088627         0.650771        -1.175707
 H         4.270662        -0.958473         1.231298
 H         4.260862         0.847232         1.291341
 H         1.214397         0.550669         2.934010
 H         1.107932         2.605733         0.173899
