19
Iteration:  2048charge 0 multiplicity 1
 C        -0.152727        -0.563819         0.242694
 C         1.386699        -0.239999         0.315480
 C         2.323351        -1.153460        -0.686950
 C         3.300891         0.022831        -0.531820
 C         3.816722         0.037392         0.875791
 C         2.387045         0.497652         1.259578
 O         2.003027         1.043757         2.510845
 C         2.116966         1.006088        -0.086653
 O         1.844253         2.336503        -0.205832
 H        -0.783934         0.056305         0.913693
 H        -0.495027        -0.238593        -0.772084
 H        -0.533981        -1.638027         0.394910
 H         2.643840        -2.050598        -0.127911
 H         1.850790        -1.364009        -1.662302
 H         3.863654         0.260643        -1.459053
 H         4.057924        -0.912420         1.317106
 H         4.666129         0.854337         1.044677
 H         1.995094         2.029868         2.314176
 H         1.238821         2.612522        -0.918865
