19
Iteration:  4757charge 0 multiplicity 1
 C        -0.174364        -0.432139         0.084913
 C         1.227374         0.127205        -0.021520
 C         1.992792        -0.025454        -1.412853
 C         3.233445         0.585181        -0.633414
 C         3.678282        -0.385837         0.493842
 C         2.337602        -0.058734         1.089758
 O         2.002192        -0.378419         2.423620
 C         2.273133         1.284120         0.461495
 O         2.271044         2.675297         0.915753
 H        -0.098564        -1.332929        -0.580525
 H        -0.393273        -0.714795         1.114778
 H        -1.073493         0.093161        -0.276623
 H         2.225023        -1.064947        -1.754736
 H         1.415731         0.733351        -2.185148
 H         4.022853         1.118291        -1.195965
 H         3.991937        -1.376564         0.197844
 H         4.489726         0.099711         1.153329
 H         1.441815        -1.147095         2.411012
 H         2.997165         2.671724         1.541131
