19
Iteration:  1075
 C        -0.052039        -0.234878         0.256449
 C         1.413995        -0.164638         0.118344
 C         2.390312        -0.917344        -0.789013
 C         3.452780         0.132917        -0.387295
 C         3.788614        -0.081688         1.149547
 C         2.321431         0.382711         1.350600
 O         1.666510         0.544418         2.612451
 C         2.172108         1.115058         0.004780
 O         1.901139         2.294018        -0.650532
 H        -0.460743         0.750944         0.441671
 H        -0.535489        -0.514971        -0.671895
 H        -0.355033        -0.895803         1.091436
 H         2.421867        -2.044664        -0.721708
 H         2.132632        -0.561754        -1.847307
 H         4.391242         0.394291        -1.025208
 H         4.115778        -1.036224         1.517560
 H         4.510680         0.730553         1.446750
 H         2.072115         1.317024         2.991897
 H         0.975778         2.618277        -0.489863
