19
Iteration:  4290charge 0 multiplicity 1
 C        -0.168246        -0.179099         0.284641
 C         1.283930         0.046979        -0.067630
 C         2.192192        -0.313527        -1.322559
 C         3.338421         0.490979        -0.696193
 C         3.763068        -0.439128         0.538937
 C         2.376672         0.035215         1.079073
 O         2.094207         0.020491         2.504541
 C         2.312096         1.191838         0.262651
 O         1.821536         2.382984         0.689973
 H        -0.484428        -1.206709         0.079395
 H        -0.226984        -0.059050         1.383156
 H        -0.941599         0.507755        -0.203374
 H         2.550502        -1.326752        -1.592973
 H         1.518299        -0.033638        -2.146764
 H         4.078784         1.146862        -1.119149
 H         4.071897        -1.490952         0.405758
 H         4.532082         0.046482         1.263219
 H         1.216505         0.382036         2.816564
 H         2.064532         2.532951         1.639689
