19
Iteration:  3847
 C        -0.122831        -0.323621         0.388678
 C         1.341903        -0.122574         0.087793
 C         2.212969        -0.516442        -1.163125
 C         3.276554         0.415871        -0.653379
 C         3.763319        -0.287561         0.610958
 C         2.336873         0.057552         1.217053
 O         1.924354         0.121981         2.600274
 C         2.234444         1.213648         0.208354
 O         2.012881         2.668287         0.147593
 H        -0.386205        -1.204349        -0.244327
 H        -0.398135        -0.521773         1.468536
 H        -0.772507         0.441981        -0.050837
 H         2.507887        -1.598002        -1.197171
 H         1.700241        -0.301233        -2.127806
 H         3.990183         0.831200        -1.399938
 H         4.176773        -1.317073         0.555338
 H         4.528180         0.425522         1.182820
 H         1.944266        -0.631130         3.235143
 H         1.401973         2.957468         0.836403
