19
Iteration:  3235charge 0 multiplicity 1
 C        -0.101478        -0.465614         0.392051
 C         1.388362        -0.100549         0.121043
 C         2.156142        -0.776127        -0.937291
 C         3.285459         0.223052        -0.622225
 C         3.745427        -0.222743         0.788222
 C         2.355719         0.312408         1.327727
 O         2.095743         0.457684         2.608559
 C         2.197775         1.194965         0.069940
 O         1.873410         2.544993        -0.110568
 H        -0.722578        -0.397071        -0.500141
 H        -0.056768        -1.558264         0.794167
 H        -0.609313         0.104741         1.151771
 H         2.332769        -1.857338        -0.925635
 H         2.042931        -0.495499        -2.001674
 H         3.924422         0.624756        -1.387208
 H         3.854878        -1.334429         0.888331
 H         4.554591         0.526222         1.087263
 H         1.146311         0.453681         2.856759
 H         1.907345         2.879149        -1.019519
