19
Iteration:  2419
 C        -0.072516        -0.172821         0.210310
 C         1.465110        -0.342022         0.279250
 C         2.391432        -1.037745        -0.731976
 C         3.375017         0.109981        -0.502092
 C         3.792451        -0.074358         0.998533
 C         2.369233         0.463724         1.269912
 O         1.985770         0.811009         2.574626
 C         2.174918         1.040266        -0.037020
 O         1.646050         2.277084        -0.368283
 H        -0.621236         0.575192        -0.356064
 H        -0.459711        -1.111906        -0.139645
 H        -0.583323        -0.137869         1.205648
 H         2.609175        -2.068721        -0.378565
 H         1.973628        -0.987607        -1.738131
 H         4.100059         0.310983        -1.309584
 H         4.224652        -1.106588         1.309031
 H         4.504941         0.602068         1.333429
 H         1.422170         1.616931         2.560293
 H         0.979263         2.023076        -1.053105
