19
Iteration:   398charge 0 multiplicity 1
 C         0.001987         0.094714         0.209421
 C         1.421264        -0.227171         0.124187
 C         2.402083        -1.058647        -0.850833
 C         3.453370         0.105459        -0.447599
 C         3.799902        -0.073348         1.227964
 C         2.374320         0.379950         1.347385
 O         1.754819         0.683546         2.615911
 C         2.256978         0.935637        -0.109800
 O         1.647122         2.199286        -0.437743
 H        -0.324476         0.994059         0.709068
 H        -0.306873         0.223540        -0.816406
 H        -0.572901        -0.719742         0.646341
 H         2.625005        -1.987501        -0.493165
 H         2.097140        -1.000852        -1.893435
 H         4.274320         0.468180        -1.142504
 H         4.138021        -1.083193         1.540455
 H         4.346767         0.823848         1.744747
 H         0.766021         0.549987         2.521036
 H         2.202398         2.684821        -1.100142
