19
Iteration:  4115charge 0 multiplicity 1
 C        -0.191305        -0.163106         0.187406
 C         1.262127        -0.028140        -0.044350
 C         2.196592        -0.482791        -1.253633
 C         3.276575         0.357812        -0.657709
 C         3.817784        -0.302207         0.606610
 C         2.458970         0.068700         1.240869
 O         2.150277         0.006201         2.564630
 C         2.144502         1.156723         0.210028
 O         1.824863         2.591226         0.528208
 H        -0.483905        -0.934678         0.897937
 H        -0.688191         0.786809         0.384605
 H        -0.610950        -0.571799        -0.777714
 H         2.656447        -1.505124        -1.217968
 H         1.854497        -0.219236        -2.279025
 H         3.954669         1.003245        -1.332843
 H         4.222577        -1.361079         0.669051
 H         4.567912         0.425098         1.020213
 H         1.323326        -0.332726         2.909239
 H         2.223867         2.826008         1.359990
