19
Iteration:  2389
 C         0.003831        -0.236586         0.454445
 C         1.478552        -0.193884         0.203822
 C         2.295652        -0.948359        -0.826691
 C         3.430711         0.079044        -0.523715
 C         3.811276        -0.134572         1.063978
 C         2.403781         0.428683         1.299858
 O         1.842193         0.797920         2.572218
 C         2.241959         1.097961        -0.022492
 O         1.683626         2.265753        -0.526311
 H        -0.617159         0.647625         0.561774
 H        -0.454974        -0.827156        -0.323724
 H        -0.197741        -0.965925         1.311567
 H         2.363321        -2.005687        -0.473636
 H         1.852049        -1.057164        -1.805127
 H         4.260652         0.328521        -1.235939
 H         4.099680        -1.194760         1.346523
 H         4.525844         0.832976         1.329387
 H         0.986333         1.202470         2.413513
 H         0.987052         1.887967        -1.078216
