19
Iteration:   806charge 0 multiplicity 1
 C        -0.077954        -0.163576         0.287445
 C         1.461637        -0.154348         0.193477
 C         2.390318        -1.087688        -0.638498
 C         3.412287         0.160603        -0.464252
 C         3.804076        -0.034261         1.054278
 C         2.380258         0.483284         1.295356
 O         1.619457         0.510058         2.467363
 C         2.257798         1.091340        -0.121007
 O         1.816141         2.325734        -0.516511
 H        -0.384101         0.922033         0.299380
 H        -0.601081        -0.699500        -0.537932
 H        -0.493648        -0.586947         1.237602
 H         2.762717        -2.112908        -0.255439
 H         1.936537        -1.240699        -1.680109
 H         4.241851         0.273360        -1.225193
 H         3.996068        -1.028489         1.492915
 H         4.604099         0.694173         1.287881
 H         2.132528         1.011629         3.170815
 H         1.487181         2.813673         0.270356
