19
Iteration:  1451
 C         0.008418        -0.496211         0.345076
 C         1.428315        -0.176312         0.103132
 C         2.352790        -0.910510        -0.873599
 C         3.393984         0.149455        -0.445509
 C         3.681301        -0.043245         1.101539
 C         2.234474         0.401747         1.384441
 O         1.803209         0.856915         2.639975
 C         2.158722         1.076102        -0.026320
 O         1.866710         2.320247        -0.552338
 H        -0.401429         0.159389         1.216423
 H        -0.637588        -0.358774        -0.589275
 H        -0.021071        -1.577429         0.687426
 H         2.664786        -1.968528        -0.791786
 H         1.972823        -0.794598        -1.931077
 H         4.263681         0.375099        -1.202469
 H         4.089784        -1.094102         1.367653
 H         4.528047         0.800249         1.418216
 H         2.500312         0.624169         3.306037
 H         1.417237         1.969411        -1.377162
