19
Iteration:  3490
 C        -0.153169        -0.275857         0.437746
 C         1.382548        -0.114897         0.120836
 C         2.252763        -0.661845        -1.057041
 C         3.378993         0.279455        -0.622248
 C         3.855751        -0.289455         0.842892
 C         2.388735         0.231617         1.267049
 O         1.916323         0.386786         2.562134
 C         2.264730         1.200771         0.073066
 O         1.752327         2.478436        -0.036314
 H        -0.448585        -0.533778         1.495492
 H        -0.500422         0.663633         0.135818
 H        -0.669172        -0.965801        -0.224997
 H         2.590952        -1.697731        -1.213653
 H         1.857033        -0.304872        -2.020803
 H         4.175449         0.669679        -1.303848
 H         4.123469        -1.386177         1.008320
 H         4.570889         0.353379         1.303803
 H         2.237358        -0.434373         3.009483
 H         1.121016         2.328246        -0.767722
