19
Iteration:  3588charge 0 multiplicity 1
 C        -0.124907        -0.356718         0.427387
 C         1.428219        -0.172561         0.045821
 C         2.262341        -0.668808        -1.081714
 C         3.347954         0.232452        -0.698722
 C         3.755542        -0.152245         0.745207
 C         2.400008         0.233471         1.224550
 O         1.911018         0.409658         2.503519
 C         2.152955         1.167320         0.148103
 O         1.921161         2.504537         0.228651
 H        -0.778388         0.308293        -0.285269
 H        -0.486433        -1.390184         0.242686
 H        -0.311836        -0.085258         1.493430
 H         2.543133        -1.764298        -1.050764
 H         1.759288        -0.437254        -2.058028
 H         4.080056         0.525164        -1.509799
 H         4.142175        -1.152694         1.023321
 H         4.415039         0.623825         1.123213
 H         1.465222        -0.451690         2.722692
 H         1.400409         2.774175        -0.556153
