19
Iteration:  2933charge 0 multiplicity 1
 C         0.005481        -0.442988         0.504984
 C         1.404126        -0.148338         0.067616
 C         2.300436        -0.901758        -0.885559
 C         3.378163         0.212876        -0.621177
 C         3.794054        -0.171353         0.895947
 C         2.341377         0.303388         1.233853
 O         1.783052         0.627232         2.483398
 C         2.140780         1.166134        -0.021147
 O         1.771518         2.457633        -0.173755
 H        -0.620078        -0.619442        -0.402882
 H        -0.189961        -1.293524         1.091347
 H        -0.560405         0.319978         1.062043
 H         2.544108        -1.946855        -0.771756
 H         1.975751        -0.624653        -1.912383
 H         4.178571         0.447999        -1.309623
 H         3.971456        -1.168584         1.060876
 H         4.591963         0.516389         1.385313
 H         2.592610         0.802694         3.013418
 H         2.455520         2.964150         0.299845
