19
Iteration:  2845
 C        -0.121337        -0.140935         0.247017
 C         1.441000        -0.180350         0.155540
 C         2.282965        -0.845586        -0.880143
 C         3.362601         0.267187        -0.527242
 C         3.755624        -0.085930         0.960339
 C         2.366267         0.317092         1.348200
 O         2.075923         0.363789         2.742473
 C         2.154000         1.096877         0.007291
 O         1.600665         2.260526        -0.458766
 H        -0.197746         0.732478         0.954385
 H        -0.535804         0.115504        -0.731108
 H        -0.459895        -1.087637         0.695406
 H         2.642266        -1.879134        -0.768434
 H         1.790474        -0.584437        -1.840191
 H         4.231789         0.656070        -1.071438
 H         4.084244        -0.995884         1.212662
 H         4.518792         0.720719         1.286745
 H         2.010584         1.295520         3.048204
 H         2.387248         2.845137        -0.484746
