19
Iteration:  1929
 C        -0.046819        -0.416985         0.368843
 C         1.385334        -0.226909         0.239244
 C         2.293385        -1.062642        -0.765227
 C         3.311649         0.086495        -0.520963
 C         3.798490         0.057369         1.015336
 C         2.427424         0.479349         1.312540
 O         1.941423         0.765695         2.575773
 C         2.085271         1.048549        -0.065594
 O         1.812622         2.311068        -0.546810
 H        -0.495116         0.521673         0.749054
 H        -0.761726        -0.725302        -0.359678
 H        -0.155321        -1.006752         1.324087
 H         2.583537        -2.096530        -0.546669
 H         1.762819        -0.943318        -1.741810
 H         4.142100         0.329718        -1.194583
 H         4.137196        -0.932329         1.468419
 H         4.645281         0.800709         1.162319
 H         2.330958         1.595041         2.876951
 H         0.890474         2.612256        -0.648160
