19
Iteration:   509
 C        -0.120954        -0.555098         0.474818
 C         1.371033        -0.218508         0.097995
 C         2.407638        -0.937321        -0.877259
 C         3.398864         0.139399        -0.483226
 C         3.629379        -0.167523         1.071655
 C         2.265071         0.304515         1.224104
 O         1.538548         0.874420         2.326454
 C         2.251024         1.136492        -0.023377
 O         2.182287         2.449295        -0.309113
 H        -0.574807         0.095045         1.201664
 H        -0.730307        -0.677782        -0.423499
 H        -0.152140        -1.563388         0.963500
 H         2.761861        -1.920027        -0.740941
 H         2.082715        -0.801907        -1.899891
 H         4.292295         0.448591        -0.938917
 H         3.842408        -1.149695         1.526053
 H         4.347950         0.605642         1.463854
 H         2.238297         1.289308         2.865665
 H         2.126779         3.046554         0.442191
