19
Iteration:   955
 C        -0.136052        -0.438149         0.263446
 C         1.405872        -0.177555         0.083481
 C         2.386498        -1.049468        -0.655982
 C         3.377797         0.084505        -0.486053
 C         3.793079        -0.045296         0.934069
 C         2.319334         0.294267         1.243266
 O         1.602195         0.963284         2.243020
 C         2.256757         1.037852        -0.032541
 O         2.028980         2.348097        -0.037017
 H        -0.531699        -0.199526         1.228538
 H        -0.675796         0.232346        -0.374116
 H        -0.445374        -1.468735         0.052786
 H         2.533914        -2.068969        -0.152861
 H         2.139113        -1.155681        -1.739478
 H         4.294115         0.077636        -1.251495
 H         4.331756        -0.876582         1.333099
 H         4.337401         0.889157         1.240719
 H         2.200160         1.696863         2.631942
 H         1.076837         2.391563         0.104809
