19
Iteration:  3461
 C         0.071533        -0.359157         0.585365
 C         1.435693        -0.054038         0.035908
 C         2.228230        -0.782088        -1.056933
 C         3.288910         0.329942        -0.592186
 C         3.770185        -0.171507         0.799869
 C         2.331089         0.296612         1.247938
 O         1.831307         0.312790         2.526441
 C         2.222916         1.174938         0.112132
 O         1.897862         2.489271        -0.101463
 H        -0.090616        -1.104123         1.351673
 H        -0.157387         0.684352         0.962841
 H        -0.723278        -0.337224        -0.234639
 H         2.579175        -1.824628        -0.986044
 H         1.878149        -0.543351        -2.064973
 H         4.059900         0.801240        -1.196484
 H         4.104885        -1.236285         0.919030
 H         4.618591         0.361704         1.213950
 H         1.142732        -0.368339         2.588618
 H         0.944923         2.487966        -0.363034
