19
Iteration:  4301
 C        -0.070052        -0.165521         0.276742
 C         1.362803         0.041692        -0.064516
 C         2.117649        -0.297923        -1.366014
 C         3.307977         0.498473        -0.738815
 C         3.775393        -0.397136         0.541301
 C         2.339227        -0.081340         1.144587
 O         2.065474        -0.003473         2.581529
 C         2.285233         1.190580         0.259609
 O         1.818004         2.429533         0.689212
 H        -0.143784        -1.240637         0.343486
 H        -0.348603         0.240576         1.269085
 H        -0.823668         0.285849        -0.468447
 H         2.350406        -1.367403        -1.500495
 H         1.860933         0.247957        -2.305688
 H         3.988408         0.846131        -1.494899
 H         3.899570        -1.483700         0.386847
 H         4.552357         0.136741         1.199397
 H         1.198970         0.460163         2.604124
 H         2.117665         2.544232         1.592255
