19
Iteration:  2314
 C        -0.155539        -0.695848         0.432536
 C         1.325378        -0.157259         0.245930
 C         2.208290        -1.076034        -0.628047
 C         3.333595         0.051060        -0.536162
 C         3.880063         0.080747         0.969984
 C         2.339832         0.566823         1.273474
 O         1.887690         0.851606         2.497098
 C         2.163276         1.098362        -0.104224
 O         2.027969         2.408098        -0.405910
 H        -0.628332        -0.569163         1.488278
 H        -0.874552        -0.060413        -0.193915
 H        -0.190168        -1.777592         0.074962
 H         2.688993        -2.073095        -0.516087
 H         1.833050        -1.185933        -1.713967
 H         3.900780         0.075203        -1.518684
 H         4.087246        -0.847783         1.355753
 H         4.586595         1.028347         1.047279
 H         1.033340         1.331579         2.644554
 H         1.982517         2.490456        -1.391908
