19
Iteration:   740charge 0 multiplicity 1
 C        -0.089371        -0.784357         0.143178
 C         1.284172        -0.222335         0.074279
 C         2.303793        -0.945700        -0.761832
 C         3.380783         0.116510        -0.444628
 C         3.640721        -0.208570         1.154824
 C         2.338084         0.474920         1.229825
 O         1.889348         1.200170         2.333115
 C         2.142833         1.063525        -0.089289
 O         1.974150         2.430891        -0.149441
 H        -0.591136        -0.263058         0.986322
 H        -0.619993        -0.621015        -0.810620
 H        -0.106242        -1.865054         0.437657
 H         2.766481        -1.963586        -0.518568
 H         2.116091        -1.055636        -1.883946
 H         4.324499         0.417839        -1.033819
 H         3.591036        -1.246627         1.452127
 H         4.516101         0.278204         1.551778
 H         1.981990         0.622328         3.080062
 H         2.387329         2.668434         0.683678
