19
Iteration:  4848
 C        -0.035809         0.180075         0.326589
 C         1.349433         0.157312        -0.110753
 C         2.079805        -0.060670        -1.433747
 C         3.346245         0.565475        -0.750958
 C         3.767536        -0.380176         0.426588
 C         2.455313        -0.160540         1.132402
 O         2.044761        -0.474570         2.375626
 C         2.271602         1.125294         0.482095
 O         1.744913         2.352498         0.972343
 H        -0.030208         0.216848         1.409454
 H        -0.525625         1.121677        -0.032686
 H        -0.648758        -0.704701         0.056918
 H         2.440649        -0.997154        -1.672332
 H         1.570091         0.669808        -2.145341
 H         4.214109         1.099873        -1.172438
 H         4.077802        -1.336729        -0.016149
 H         4.525368         0.074793         1.076733
 H         1.676559        -1.357314         2.403035
 H         1.460232         2.981729         0.262339
