19
Iteration:  4258charge 0 multiplicity 1
 C        -0.116985        -0.180626         0.202421
 C         1.378556        -0.076379         0.003605
 C         2.120649        -0.399797        -1.263057
 C         3.271389         0.469993        -0.743505
 C         3.783878        -0.356626         0.576817
 C         2.351327         0.007117         1.163925
 O         2.088080        -0.050056         2.520104
 C         2.194869         1.246637         0.245407
 O         1.884848         2.542815         0.660246
 H        -0.615168        -0.525758        -0.669176
 H        -0.371530        -0.851236         1.024075
 H        -0.617337         0.818964         0.361135
 H         2.494773        -1.408802        -1.565938
 H         1.488029         0.099364        -2.024948
 H         3.938431         1.028453        -1.371790
 H         4.278088        -1.310435         0.411657
 H         4.532375         0.228334         1.159565
 H         1.202582        -0.296145         2.792674
 H         2.505416         2.763942         1.361739
