19
Iteration:  1751charge 0 multiplicity 1
 C        -0.113286        -0.487400         0.264581
 C         1.342283        -0.223725         0.224607
 C         2.257490        -1.028612        -0.711407
 C         3.304110         0.111924        -0.534964
 C         3.811334        -0.048571         0.932174
 C         2.426762         0.554967         1.383264
 O         1.953019         0.945545         2.716876
 C         2.153967         1.050731        -0.045463
 O         1.870573         2.283848        -0.612402
 H        -0.660437        -0.139223         1.181770
 H        -0.648064        -0.282274        -0.694666
 H        -0.265651        -1.622507         0.410478
 H         2.475013        -2.100320        -0.384410
 H         1.880405        -1.138541        -1.752915
 H         3.937485         0.734925        -1.160238
 H         4.243503        -0.950816         1.261270
 H         4.565151         0.794614         1.083731
 H         2.362495         0.316839         3.315623
 H         0.945196         2.547635        -0.518677
