19
Iteration:  3256charge 0 multiplicity 1
 C        -0.125733        -0.516983         0.338340
 C         1.336900        -0.071644         0.219514
 C         2.113446        -0.670276        -0.918517
 C         3.285568         0.320994        -0.624769
 C         3.790086        -0.192793         0.794135
 C         2.381733         0.284693         1.300125
 O         2.131683         0.368986         2.681744
 C         2.150843         1.214354         0.070229
 O         1.984158         2.527325        -0.233083
 H        -0.449656        -0.638550        -0.636766
 H        -0.398316        -1.345483         1.078955
 H        -0.805515         0.234480         0.697980
 H         2.269550        -1.727399        -0.687637
 H         1.543155        -0.816719        -1.870413
 H         4.064554         0.618007        -1.306927
 H         3.791909        -1.283218         1.025789
 H         4.517408         0.635983         1.322484
 H         1.245952         0.000760         2.656127
 H         1.393919         2.538082        -1.024216
