19
Iteration:  3856charge 0 multiplicity 1
 C        -0.085414        -0.307101         0.324901
 C         1.334365        -0.060264         0.079604
 C         2.163942        -0.507962        -1.137321
 C         3.285886         0.442993        -0.667115
 C         3.816803        -0.331235         0.622618
 C         2.391783         0.021539         1.232519
 O         1.926991         0.194257         2.572599
 C         2.155923         1.196842         0.210190
 O         1.969083         2.559914         0.170985
 H        -0.430097        -1.352036         0.102145
 H        -0.186495        -0.126464         1.416461
 H        -0.791476         0.478641        -0.087810
 H         2.522238        -1.574433        -1.262447
 H         1.782105        -0.068123        -2.097521
 H         4.052717         0.991097        -1.307083
 H         4.166653        -1.422579         0.756514
 H         4.518717         0.371487         1.170560
 H         1.893538        -0.706963         2.999544
 H         1.579104         2.851227         1.004412
