19
Iteration:  4287charge 0 multiplicity 1
 C        -0.195377        -0.183580         0.295390
 C         1.306229         0.038003        -0.072851
 C         2.197383        -0.333150        -1.305308
 C         3.361293         0.498653        -0.675467
 C         3.721239        -0.439599         0.542170
 C         2.396748         0.047023         1.095622
 O         2.109424         0.023410         2.465730
 C         2.269283         1.199288         0.265736
 O         1.829038         2.385678         0.687762
 H        -0.679728        -1.170529        -0.038532
 H        -0.234633        -0.151157         1.409330
 H        -0.925948         0.521338        -0.172946
 H         2.481675        -1.346260        -1.564287
 H         1.569689         0.013049        -2.143165
 H         4.170168         1.206892        -1.092970
 H         4.154987        -1.448720         0.390602
 H         4.615166         0.016112         1.209940
 H         1.246077         0.332375         2.753051
 H         2.114056         2.515641         1.634763
