19
Iteration:  3149charge 0 multiplicity 1
 C        -0.042751        -0.378871         0.292435
 C         1.311072        -0.218482         0.136863
 C         2.202290        -0.846633        -0.912717
 C         3.330710         0.239942        -0.639021
 C         3.777981        -0.145856         0.762559
 C         2.442266         0.341557         1.295251
 O         1.956349         0.581160         2.533642
 C         2.165323         1.132844         0.026149
 O         1.842807         2.423731        -0.031538
 H        -0.721517         0.599988         0.370067
 H        -0.589243        -0.987904        -0.534383
 H        -0.330844        -0.766444         1.278698
 H         2.515254        -1.918445        -0.639764
 H         1.687447        -0.651636        -1.877491
 H         4.077640         0.303806        -1.418063
 H         4.144408        -1.171240         1.034643
 H         4.551014         0.513756         0.985548
 H         2.652695         0.753805         3.164428
 H         1.185698         2.722386         0.635583
