19
Iteration:  1446charge 0 multiplicity 1
 C         0.018088        -0.486831         0.385044
 C         1.404691        -0.224296         0.149219
 C         2.354015        -0.899960        -0.902180
 C         3.340974         0.144955        -0.432001
 C         3.714166        -0.016077         1.086778
 C         2.276195         0.408305         1.356969
 O         1.738800         0.840283         2.617190
 C         2.203160         1.070912        -0.013986
 O         1.896032         2.319419        -0.563119
 H        -0.336310         0.249945         1.065495
 H        -0.590234        -0.385649        -0.478464
 H        -0.043813        -1.500667         0.713619
 H         2.848034        -1.892076        -0.849104
 H         2.024603        -0.830208        -1.933963
 H         4.183204         0.352502        -1.022286
 H         4.047291        -0.964545         1.404285
 H         4.492328         0.590044         1.277779
 H         2.499278         0.639250         3.183258
 H         1.174211         2.201303        -1.213376
