19
Iteration:  1638
 C        -0.069691        -0.536006         0.515112
 C         1.326371        -0.232672         0.092628
 C         2.336531        -0.986754        -0.791929
 C         3.258984         0.187243        -0.484982
 C         3.796965         0.058434         1.001392
 C         2.367072         0.424590         1.349375
 O         1.824122         0.839632         2.543972
 C         2.112048         1.077620        -0.065424
 O         2.001653         2.359758        -0.511576
 H        -0.663457         0.376858         0.476752
 H        -0.479962        -1.233548        -0.249894
 H        -0.291130        -0.884141         1.534008
 H         2.615737        -1.972042        -0.351329
 H         2.046154        -1.162149        -1.840202
 H         4.167190         0.489959        -1.047123
 H         4.144527        -0.887927         1.266071
 H         4.622997         0.824617         1.143237
 H         1.829445        -0.011841         3.068443
 H         1.456934         2.344388        -1.345772
