19
Iteration:   239
 C        -0.068471        -0.320015         0.436373
 C         1.354316        -0.192390         0.049592
 C         2.352388        -0.990849        -0.843902
 C         3.477378         0.128780        -0.362687
 C         3.650496        -0.194949         1.093805
 C         2.229871         0.348507         1.210820
 O         1.863847         0.874839         2.390461
 C         2.185216         1.021982        -0.156626
 O         1.948947         2.411103        -0.236214
 H        -0.425462         0.425004         1.198762
 H        -0.808737        -0.325375        -0.434122
 H        -0.081379        -1.339202         0.951843
 H         2.563847        -2.005912        -0.501684
 H         2.189684        -0.843833        -1.871834
 H         4.317603         0.255578        -0.952908
 H         3.734397        -1.371863         1.248448
 H         4.358683         0.392195         1.665597
 H         1.006593         0.705874         2.733528
 H         2.168736         2.898443        -1.067883
