19
Iteration:  2132
 C        -0.015200        -0.460702         0.643753
 C         1.422132        -0.203863         0.199559
 C         2.273560        -1.033444        -0.718192
 C         3.344591         0.159937        -0.513316
 C         3.804739        -0.103418         0.947759
 C         2.403775         0.437811         1.259002
 O         1.711742         0.779556         2.414973
 C         2.234259         1.174782        -0.068012
 O         1.849118         2.365528        -0.497582
 H        -0.572418         0.508486         0.683728
 H        -0.509317        -1.184932        -0.034922
 H         0.016807        -0.818485         1.636552
 H         2.479765        -2.103182        -0.525368
 H         1.846283        -0.971085        -1.724072
 H         4.089697         0.185235        -1.405579
 H         4.281116        -1.075581         1.396211
 H         4.445101         0.757815         1.257761
 H         2.116856         1.466900         2.951029
 H         1.413226         2.235467        -1.356916
