19
Iteration:  3052
 C         0.007523        -0.237065         0.607299
 C         1.402167        -0.174815         0.051036
 C         2.252859        -0.805758        -0.979670
 C         3.348359         0.264012        -0.538348
 C         3.812340        -0.120586         0.896438
 C         2.383911         0.308641         1.245099
 O         1.869450         0.343536         2.568914
 C         2.182257         1.134590        -0.049938
 O         1.730844         2.391108        -0.219623
 H        -0.015159        -0.608405         1.703339
 H        -0.627302         0.627993         0.452892
 H        -0.545968        -1.007475         0.108465
 H         2.492301        -1.884322        -0.874186
 H         1.982498        -0.576416        -2.023974
 H         4.113954         0.580306        -1.239011
 H         4.253040        -1.193198         1.042306
 H         4.493496         0.740759         1.277607
 H         1.604348         1.255106         2.733110
 H         2.164657         2.839744        -0.977708
