19
Iteration:    92
 C        -0.026329        -0.538200         0.448030
 C         1.396677        -0.129268         0.170399
 C         2.306767        -0.976118        -0.844206
 C         3.368351         0.071041        -0.477212
 C         3.674763        -0.214477         1.050422
 C         2.288942         0.403434         1.236196
 O         1.652530         0.946161         2.359721
 C         2.258134         1.087585        -0.062030
 O         2.093329         2.487763        -0.207338
 H        -0.745827         0.202601         0.889179
 H        -0.412357        -0.800077        -0.587377
 H        -0.011800        -1.495054         1.038492
 H         2.511791        -2.007971        -0.619668
 H         1.942307        -0.857536        -1.923099
 H         4.184130         0.372839        -1.198051
 H         3.863767        -1.308867         1.307545
 H         4.473522         0.528256         1.372010
 H         0.947892         0.325225         2.728586
 H         2.306912         2.639207        -1.131089
