19
Iteration:   729
 C        -0.095935        -0.740559         0.188087
 C         1.344351        -0.223950         0.063337
 C         2.344406        -1.058679        -0.756429
 C         3.350734         0.044289        -0.473759
 C         3.696242        -0.167186         1.058443
 C         2.287717         0.429530         1.279349
 O         1.829570         1.175102         2.356430
 C         2.241551         1.101450        -0.064860
 O         1.990919         2.536838        -0.150562
 H        -0.782568        -0.494573         1.019757
 H        -0.707393        -0.584385        -0.721745
 H         0.126741        -1.826857         0.117604
 H         2.496703        -2.059374        -0.221645
 H         1.845645        -1.137984        -1.774552
 H         4.165111         0.259974        -1.261110
 H         3.904651        -1.211316         1.243644
 H         4.423216         0.456852         1.556148
 H         1.457471         0.639966         3.052448
 H         2.116761         2.945714         0.727090
