19
Iteration:  1485
 C        -0.106065        -0.480448         0.194477
 C         1.431657        -0.202228         0.241093
 C         2.430676        -0.999233        -0.664577
 C         3.382703         0.127219        -0.450050
 C         3.744290        -0.077564         1.104274
 C         2.364761         0.512320         1.311358
 O         1.943617         0.863757         2.561190
 C         2.098596         1.103117        -0.084008
 O         1.678404         2.336026        -0.552923
 H        -0.760424        -0.182701         1.079135
 H        -0.550739        -0.002971        -0.757433
 H        -0.309550        -1.606405         0.080292
 H         2.741173        -1.998990        -0.321379
 H         1.914539        -0.972783        -1.642248
 H         4.153379         0.206511        -1.304549
 H         3.998982        -1.192127         1.323434
 H         4.660769         0.639406         1.450373
 H         1.821749         0.093705         3.139926
 H         2.411111         3.004794        -0.444024
