19
Iteration:  2303
 C        -0.163099        -0.630685         0.403718
 C         1.346989        -0.253722         0.262430
 C         2.253659        -1.072247        -0.648851
 C         3.304569         0.035110        -0.542860
 C         3.764008         0.091783         0.937596
 C         2.383804         0.479697         1.249502
 O         1.903661         0.932829         2.537817
 C         2.245363         1.051748        -0.132021
 O         1.980182         2.410171        -0.359180
 H        -0.503313        -0.749548         1.486616
 H        -0.868673        -0.082773        -0.283342
 H        -0.122672        -1.702940         0.013492
 H         2.351003        -2.127092        -0.322837
 H         1.858516        -0.914056        -1.697521
 H         4.031252         0.268048        -1.377533
 H         4.197662        -0.704417         1.463398
 H         4.564799         0.931472         1.123680
 H         1.176986         1.512157         2.253697
 H         1.757579         2.638643        -1.294179
