19
Iteration:   436charge 0 multiplicity 1
 C        -0.108003        -0.266004         0.141908
 C         1.408920        -0.139847         0.185419
 C         2.345549        -0.980604        -0.700336
 C         3.427272         0.126102        -0.453875
 C         3.679498        -0.082442         1.153885
 C         2.243715         0.353240         1.312651
 O         1.859355         0.667642         2.590276
 C         2.256935         1.090298        -0.072702
 O         1.931447         2.375889        -0.440560
 H        -0.683405         0.178410         0.980087
 H        -0.381442         0.172384        -0.841006
 H        -0.315260        -1.351022         0.114080
 H         2.669405        -2.040976        -0.335364
 H         1.991782        -1.126026        -1.788667
 H         4.267002         0.355582        -1.114422
 H         3.928824        -1.125425         1.471420
 H         4.427063         0.544973         1.590741
 H         1.054582         1.165737         2.629961
 H         1.548301         2.294194        -1.328352
