19
Iteration:  3253charge 0 multiplicity 1
 C        -0.112826        -0.509741         0.342319
 C         1.307513        -0.055031         0.226141
 C         2.134651        -0.681214        -0.922279
 C         3.264172         0.321458        -0.601254
 C         3.770655        -0.192331         0.800974
 C         2.393413         0.296386         1.256998
 O         2.133689         0.379987         2.669194
 C         2.174279         1.211725         0.067486
 O         1.972091         2.514749        -0.207535
 H        -0.437277        -0.633897        -0.685325
 H        -0.320840        -1.347098         0.997197
 H        -0.864867         0.169210         0.821838
 H         2.344377        -1.765181        -0.776460
 H         1.447582        -0.819842        -1.781949
 H         4.085853         0.591170        -1.316376
 H         3.843246        -1.262818         0.974566
 H         4.527570         0.547830         1.358648
 H         1.213125         0.060305         2.621483
 H         1.505628         2.428313        -1.061223
