19
Iteration:  2546
 C        -0.018435        -0.594771         0.545962
 C         1.396612        -0.211318         0.160900
 C         2.268521        -0.905832        -0.909091
 C         3.331278         0.141055        -0.530324
 C         3.708519        -0.143213         0.977173
 C         2.341503         0.461324         1.296332
 O         1.754005         0.680750         2.559339
 C         2.183063         1.173236        -0.089937
 O         1.994285         2.495676        -0.363322
 H         0.023965        -1.228586         1.411917
 H        -0.671758         0.215189         0.882785
 H        -0.517875        -1.078783        -0.273559
 H         2.631753        -1.937694        -0.817642
 H         2.125005        -0.707213        -1.968816
 H         4.174597         0.236868        -1.174286
 H         3.816897        -1.187078         1.232129
 H         4.590488         0.595181         1.367262
 H         1.690755         1.647190         2.692763
 H         1.828131         2.551264        -1.327533
