19
Iteration:  2404
 C        -0.031843        -0.263266         0.346857
 C         1.447396        -0.150676         0.238752
 C         2.329610        -1.015536        -0.703675
 C         3.438199         0.101649        -0.536948
 C         3.752132        -0.069293         0.935862
 C         2.358556         0.362694         1.364935
 O         1.902052         0.820648         2.581524
 C         2.301332         1.073818        -0.044991
 O         1.641228         2.215652        -0.444382
 H        -0.281011         0.826171         0.003469
 H        -0.418783        -0.957583        -0.472789
 H        -0.345749        -0.363144         1.360806
 H         2.778355        -2.041484        -0.678564
 H         1.866213        -0.852323        -1.726516
 H         4.247029         0.278536        -1.222801
 H         3.960359        -1.062883         1.250227
 H         4.594022         0.580751         1.292850
 H         1.119610         1.392036         2.374191
 H         0.846499         2.113625        -1.006072
