19
Iteration:  1463charge 0 multiplicity 1
 C        -0.053775        -0.520838         0.279559
 C         1.373019        -0.183663         0.097893
 C         2.360884        -0.933662        -0.780637
 C         3.470326         0.149664        -0.428943
 C         3.660928        -0.064143         1.068971
 C         2.296253         0.414637         1.324283
 O         1.898591         0.873079         2.644203
 C         2.203721         1.124017         0.013895
 O         1.760716         2.309328        -0.566639
 H        -0.557354        -0.030374         1.181385
 H        -0.758689        -0.314167        -0.616572
 H        -0.132264        -1.660117         0.418308
 H         2.350118        -2.016130        -0.548938
 H         2.032815        -0.734285        -1.832577
 H         4.294801         0.540116        -1.130916
 H         3.921624        -1.121499         1.516173
 H         4.333544         0.776669         1.685184
 H         2.493347         0.408367         3.277074
 H         1.931359         2.381971        -1.521532
