19
Iteration:  3894charge 0 multiplicity 1
 C        -0.097101        -0.205112         0.297482
 C         1.387974        -0.067384         0.013144
 C         2.254808        -0.501301        -1.220273
 C         3.390669         0.287349        -0.740912
 C         3.738568        -0.352095         0.696002
 C         2.418873         0.049407         1.150378
 O         2.039623         0.280829         2.595433
 C         2.210607         1.154474         0.147757
 O         1.686100         2.497264         0.453790
 H        -0.468773        -0.894629         1.084415
 H        -0.296453         0.859389         0.591189
 H        -0.694849        -0.465412        -0.560984
 H         2.333665        -1.551782        -1.488258
 H         1.583032        -0.064498        -1.960242
 H         4.149995         0.551805        -1.422145
 H         4.201252        -1.304169         0.577503
 H         4.514608         0.393602         1.098530
 H         1.272536        -0.294217         2.701122
 H         2.342969         2.898202         1.056942
