19
Iteration:   467charge 0 multiplicity 1
 C        -0.158595        -0.632561         0.211855
 C         1.305697        -0.105067         0.030183
 C         2.305164        -0.959940        -0.882914
 C         3.347070         0.052663        -0.383941
 C         3.664808        -0.147491         1.087283
 C         2.336544         0.535620         1.433009
 O         1.762272         0.777697         2.582008
 C         2.274608         1.139491         0.076852
 O         2.159894         2.449443        -0.483136
 H        -0.809897        -0.407936         1.018217
 H        -0.486703        -0.271313        -0.745783
 H        -0.028470        -1.689668         0.249685
 H         2.504553        -1.915361        -0.488868
 H         2.098802        -1.004590        -2.014889
 H         4.190597         0.274304        -0.969677
 H         3.878477        -1.209079         1.391894
 H         4.574512         0.456338         1.240246
 H         1.297338         1.687844         2.527849
 H         1.330530         2.830842        -0.087215
