19
Iteration:  2759charge 0 multiplicity 1
 C        -0.114154        -0.558914         0.523132
 C         1.325388        -0.250321         0.097634
 C         2.311399        -0.857970        -0.851318
 C         3.435170         0.156758        -0.596397
 C         3.746373        -0.043323         0.925915
 C         2.302620         0.292422         1.180122
 O         1.757490         0.759291         2.466325
 C         2.218482         1.100359        -0.092935
 O         1.948101         2.474436        -0.205878
 H        -0.316028        -1.573102         0.857938
 H        -0.428234         0.066679         1.302053
 H        -0.897858        -0.419548        -0.256918
 H         2.508247        -1.920268        -0.778595
 H         2.024272        -0.711344        -1.899925
 H         4.177496         0.291305        -1.390313
 H         4.119740        -1.047341         1.352895
 H         4.415167         0.756935         1.330853
 H         2.585674         1.015445         2.891760
 H         2.011862         2.708842         0.748680
