19
Iteration:  4667charge 0 multiplicity 1
 C        -0.170147         0.240222         0.173555
 C         1.333011        -0.003746        -0.099777
 C         2.118717        -0.114388        -1.352907
 C         3.303978         0.615676        -0.593140
 C         3.800770        -0.391981         0.446595
 C         2.406135        -0.138044         1.152972
 O         2.157303        -0.461100         2.505728
 C         2.275785         1.163048         0.440961
 O         1.729753         2.433761         0.711216
 H        -0.394039         1.334323         0.132032
 H        -0.864636        -0.323453        -0.443438
 H        -0.319447        -0.113085         1.229098
 H         2.403068        -1.197450        -1.527593
 H         1.697386         0.274095        -2.332869
 H         3.915460         1.252130        -1.175118
 H         4.023145        -1.426818         0.069421
 H         4.583036        -0.097517         1.121180
 H         2.157028        -1.416438         2.432840
 H         1.990028         2.646404         1.599344
