19
Iteration:   235
 C        -0.101725        -0.290861         0.417020
 C         1.358517        -0.208436         0.033254
 C         2.352819        -1.017833        -0.826407
 C         3.478179         0.148968        -0.401459
 C         3.686437        -0.185635         1.114905
 C         2.235187         0.357262         1.215402
 O         1.884033         0.860462         2.447378
 C         2.209326         1.024444        -0.137747
 O         1.922121         2.396282        -0.268599
 H        -0.481315         0.387792         1.179961
 H        -0.741731        -0.210659        -0.444995
 H        -0.240873        -1.305273         0.864924
 H         2.543378        -2.077018        -0.559833
 H         2.177052        -0.681853        -1.940469
 H         4.386027         0.172627        -1.096672
 H         3.657795        -1.220541         1.262329
 H         4.320300         0.395534         1.811763
 H         0.936631         0.618559         2.740102
 H         2.124701         2.855360        -1.088915
