19
Iteration:  1621charge 0 multiplicity 1
 C        -0.086675        -0.612845         0.441556
 C         1.363091        -0.227094         0.160070
 C         2.256127        -0.987640        -0.802705
 C         3.382229         0.152178        -0.515115
 C         3.697552         0.051200         1.018942
 C         2.271301         0.446679         1.312695
 O         1.869460         0.850393         2.649430
 C         2.147629         1.098965        -0.018420
 O         2.070663         2.375334        -0.641791
 H        -0.824799         0.199633         0.566297
 H        -0.345114        -1.387003        -0.309405
 H        -0.002576        -1.002034         1.490464
 H         2.641668        -2.025116        -0.787881
 H         1.890509        -0.808704        -1.821650
 H         3.816999         0.532554        -1.426927
 H         4.185361        -0.938600         1.484911
 H         4.178641         0.937612         1.425224
 H         2.143376         0.160377         3.329816
 H         1.105458         2.643601        -0.675487
