19
Iteration:  3106
 C        -0.082411        -0.376811         0.387241
 C         1.391170        -0.106101         0.135910
 C         2.255325        -0.746474        -0.908347
 C         3.347521         0.217469        -0.625667
 C         3.698866        -0.092228         0.844441
 C         2.386111         0.311242         1.302264
 O         2.001682         0.332744         2.678685
 C         2.099146         1.189481         0.098974
 O         1.772729         2.443049        -0.327901
 H        -0.700519         0.305798         1.102153
 H        -0.737465        -0.338123        -0.529099
 H        -0.251124        -1.371681         0.786781
 H         2.564840        -1.834239        -0.809555
 H         1.803953        -0.491486        -1.890205
 H         4.094204         0.621312        -1.300140
 H         4.004805        -1.168483         0.990330
 H         4.479578         0.403343         1.359868
 H         2.741289         0.865074         3.001179
 H         2.652104         2.801026        -0.566726
