19
Iteration:  4816
 C        -0.162600        -0.071102         0.235887
 C         1.317000         0.042490        -0.032920
 C         2.102163        -0.042360        -1.322479
 C         3.340588         0.596275        -0.653196
 C         3.750424        -0.414107         0.383225
 C         2.423253        -0.134982         1.084911
 O         2.009666        -0.359973         2.339736
 C         2.202045         1.198627         0.426585
 O         2.027805         2.517785         0.957744
 H        -0.353252        -0.687789         1.110162
 H        -0.561887         0.923469         0.567985
 H        -0.732837        -0.397653        -0.648389
 H         2.352023        -0.916877        -1.916972
 H         1.571826         0.632017        -2.094547
 H         4.176434         1.139442        -1.103139
 H         3.952653        -1.362187        -0.158691
 H         4.565918        -0.162561         1.044377
 H         1.916615        -1.344528         2.489811
 H         1.052467         2.504781         1.086985
