19
Iteration:    79
 C        -0.079692        -0.686302         0.398498
 C         1.297681        -0.222737         0.005879
 C         2.283980        -0.947036        -0.750520
 C         3.410189         0.071950        -0.492774
 C         3.617866        -0.131337         1.024983
 C         2.226510         0.426628         1.221522
 O         1.750196         0.951468         2.375501
 C         2.278148         1.166402        -0.038122
 O         2.215136         2.511370        -0.163492
 H        -0.571367         0.164205         0.899279
 H        -0.794562        -1.130393        -0.304533
 H         0.042859        -1.386541         1.231099
 H         2.520946        -2.022962        -0.493274
 H         1.969882        -0.861943        -1.851048
 H         4.238914         0.154596        -1.165773
 H         3.701191        -1.166022         1.347069
 H         4.381001         0.457363         1.545392
 H         0.979918         0.466428         2.604779
 H         1.879735         2.779865        -1.070082
