19
Iteration:  1699charge 0 multiplicity 1
 C        -0.074779        -0.239461         0.461953
 C         1.419186        -0.229511         0.126966
 C         2.402705        -1.070247        -0.731908
 C         3.449932         0.019393        -0.563401
 C         3.840014         0.041168         1.035297
 C         2.440390         0.390042         1.278642
 O         1.887965         0.918922         2.484820
 C         2.188458         1.043992        -0.093970
 O         1.562119         2.190448        -0.418584
 H        -0.349044         0.781489         0.849135
 H        -0.611028        -0.272672        -0.484829
 H        -0.361374        -1.169346         1.023781
 H         2.704674        -2.096624        -0.470152
 H         2.075578        -0.981441        -1.799869
 H         4.279480         0.206066        -1.362628
 H         3.990726        -1.033116         1.436121
 H         4.642130         0.667344         1.257639
 H         0.953701         0.720900         2.672734
 H         1.680700         2.932352         0.217595
