19
Iteration:  4649
 C        -0.185928         0.209940         0.078779
 C         1.305710         0.124099         0.019086
 C         2.148072        -0.217281        -1.322427
 C         3.237480         0.655081        -0.656361
 C         3.799473        -0.361903         0.388135
 C         2.461775        -0.217441         1.236638
 O         2.187648        -0.523776         2.592513
 C         2.194330         1.131482         0.436887
 O         1.758672         2.477901         0.694596
 H        -0.449292         1.231588         0.349766
 H        -0.474085         0.191742        -0.976176
 H        -0.691073        -0.429225         0.791901
 H         2.372658        -1.136726        -1.789399
 H         1.729703         0.333269        -2.160284
 H         3.960261         1.279672        -1.200080
 H         4.063341        -1.329501         0.037228
 H         4.700926         0.120951         0.894858
 H         1.937785        -1.448473         2.672257
 H         2.379132         2.970903         1.222391
