19
Iteration:  1106charge 0 multiplicity 1
 C        -0.050531        -0.079476         0.275315
 C         1.445609        -0.226250         0.114651
 C         2.478278        -1.102440        -0.629005
 C         3.478881         0.179099        -0.502660
 C         3.788369         0.083594         1.111110
 C         2.252419         0.338154         1.237213
 O         1.572694         0.587165         2.488680
 C         2.205660         0.997189        -0.177963
 O         1.835602         2.309415        -0.421893
 H        -0.238749         0.975832         0.513602
 H        -0.661278        -0.383774        -0.607949
 H        -0.448326        -0.732102         1.114073
 H         2.650409        -2.075962        -0.295964
 H         2.240626        -1.107998        -1.738775
 H         4.356029         0.414456        -1.176033
 H         4.180221        -0.925797         1.535624
 H         4.406959         0.964716         1.434345
 H         2.255489         0.369854         3.191637
 H         1.728466         2.839153         0.372131
