19
Iteration:  3057charge 0 multiplicity 1
 C         0.021356        -0.249950         0.644266
 C         1.424881        -0.159664         0.082268
 C         2.245220        -0.782852        -0.983675
 C         3.374016         0.273770        -0.523528
 C         3.839301        -0.136357         0.863010
 C         2.341787         0.291166         1.247962
 O         1.851184         0.325457         2.558385
 C         2.183915         1.140111        -0.029797
 O         1.726596         2.400672        -0.258302
 H        -0.183122        -0.432976         1.658214
 H        -0.625934         0.633268         0.384159
 H        -0.507559        -1.107177         0.115817
 H         2.461082        -1.835687        -0.792782
 H         2.018457        -0.451307        -2.001497
 H         4.087646         0.420072        -1.373747
 H         4.296774        -1.039768         1.111063
 H         4.552620         0.608686         1.204715
 H         1.518154         1.202298         2.860705
 H         2.165853         2.825990        -1.000036
