19
Iteration:  3193
 C        -0.070647        -0.333139         0.543117
 C         1.369329        -0.208137         0.088250
 C         2.256442        -0.790153        -1.003033
 C         3.334098         0.202794        -0.590451
 C         3.807014        -0.148649         0.774050
 C         2.402134         0.221983         1.165531
 O         1.908548         0.569621         2.439677
 C         2.207757         1.116634        -0.006238
 O         1.838105         2.389769         0.149743
 H        -0.636140         0.610569         0.057345
 H        -0.522582        -1.307780         0.156105
 H        -0.022389        -0.012204         1.593498
 H         2.446353        -1.893834        -0.699552
 H         1.834269        -0.516348        -1.987863
 H         4.009896         0.590478        -1.321576
 H         4.080359        -1.229761         0.943651
 H         4.434658         0.605977         1.136565
 H         1.649517         1.492102         2.294317
 H         1.311185         2.533848        -0.674890
