19
Iteration:  1890
 C        -0.158214        -0.560025         0.232184
 C         1.364007        -0.173084         0.168395
 C         2.296832        -1.017487        -0.551347
 C         3.289742         0.124594        -0.577531
 C         3.869334        -0.105682         0.907992
 C         2.405363         0.382214         1.314761
 O         2.002107         0.960284         2.527857
 C         2.078615         1.064173        -0.025603
 O         1.822628         2.369472        -0.342004
 H        -0.659715         0.387763         0.126300
 H        -0.329065        -1.228842        -0.651881
 H        -0.503185        -1.029284         1.137559
 H         2.584908        -1.998327        -0.150640
 H         1.826058        -1.257857        -1.504791
 H         4.015709         0.435354        -1.286575
 H         4.282643        -1.081393         1.190124
 H         4.574130         0.666823         1.045527
 H         2.583123         1.743485         2.583651
 H         0.883021         2.486853        -0.515461
