19
Iteration:  2831charge 0 multiplicity 1
 C        -0.010077        -0.180281         0.211583
 C         1.419319        -0.180068         0.220876
 C         2.251058        -0.835926        -0.813569
 C         3.378593         0.164492        -0.515285
 C         3.824747        -0.098139         0.918188
 C         2.409862         0.326930         1.323181
 O         2.010492         0.445619         2.596449
 C         2.198900         1.137960         0.075367
 O         1.550556         2.280011        -0.357313
 H        -0.472489         0.330284         1.093662
 H        -0.367219         0.461590        -0.672711
 H        -0.594675        -1.081358         0.218670
 H         2.389049        -1.934110        -0.749984
 H         1.848910        -0.748161        -1.834321
 H         3.996349         0.364712        -1.413126
 H         4.172979        -1.141808         1.121222
 H         4.521599         0.604226         1.470830
 H         1.968688         1.373169         2.833384
 H         2.086760         3.094397        -0.361550
