19
Iteration:  4737
 C        -0.123893        -0.376558         0.224643
 C         1.307830         0.114082        -0.022038
 C         2.072321        -0.036231        -1.262408
 C         3.305078         0.672885        -0.655451
 C         3.665258        -0.433239         0.414289
 C         2.346554        -0.102375         1.055274
 O         1.904190        -0.305833         2.340958
 C         2.251640         1.302709         0.366901
 O         2.148739         2.538335         0.934026
 H        -0.528508        -0.854359        -0.680500
 H        -0.248084        -1.031613         1.113341
 H        -0.740100         0.504492         0.461524
 H         2.284768        -1.029938        -1.712800
 H         1.863525         0.611398        -2.167659
 H         4.098421         1.272696        -1.208182
 H         3.880638        -1.420903         0.046149
 H         4.531762        -0.182711         1.100884
 H         1.312706        -1.081580         2.478122
 H         3.004059         2.755067         1.313360
