19
Iteration:  4598
 C        -0.136773        -0.127938         0.256127
 C         1.273776         0.107514        -0.063886
 C         2.092820        -0.048203        -1.392306
 C         3.330192         0.615080        -0.677687
 C         3.770741        -0.433434         0.455071
 C         2.345020        -0.088028         1.178043
 O         2.062998        -0.444838         2.522770
 C         2.256493         1.264723         0.397533
 O         1.930849         2.539092         0.719831
 H        -0.242800        -0.348189         1.352249
 H        -0.816285         0.719263        -0.096029
 H        -0.403012        -1.115202        -0.248726
 H         2.222949        -1.227510        -1.506692
 H         1.672677         0.260331        -2.375717
 H         4.303602         0.952245        -1.212062
 H         4.066561        -1.460147         0.003573
 H         4.674089        -0.056982         0.972750
 H         1.143613        -0.692689         2.574368
 H         2.494845         2.937063         1.417000
