19
Iteration:  4740charge 0 multiplicity 1
 C        -0.144574        -0.399855         0.215046
 C         1.318936         0.126085        -0.008469
 C         2.084079        -0.042932        -1.277982
 C         3.307897         0.677184        -0.653656
 C         3.653799        -0.420175         0.421257
 C         2.334600        -0.120668         1.063172
 O         1.915824        -0.310811         2.331328
 C         2.247071         1.319154         0.371077
 O         2.168623         2.555897         0.935720
 H        -0.487049        -0.952138        -0.656898
 H        -0.317493        -1.059081         1.102718
 H        -0.720812         0.514587         0.376337
 H         2.119379        -1.041570        -1.773118
 H         1.781547         0.548537        -2.092533
 H         4.118087         1.253857        -1.158523
 H         3.900478        -1.469672         0.088308
 H         4.474355        -0.169862         1.061304
 H         1.346041        -1.055419         2.478094
 H         3.018182         2.803112         1.334484
