19
Iteration:  2180
 C        -0.101167        -0.365292         0.461126
 C         1.341733        -0.198237         0.206470
 C         2.324262        -1.031230        -0.631249
 C         3.307190         0.146366        -0.566671
 C         3.711146         0.127509         1.012353
 C         2.307576         0.382806         1.277454
 O         1.958352         0.572179         2.702124
 C         2.108769         1.134713        -0.072374
 O         1.950939         2.378802        -0.729700
 H        -0.563358         0.591829         0.712050
 H        -0.545860        -0.809649        -0.446609
 H        -0.228238        -1.133819         1.337044
 H         2.602077        -1.954656        -0.080584
 H         1.967768        -1.300866        -1.629056
 H         4.007126         0.519953        -1.288108
 H         3.982798        -0.799350         1.387045
 H         4.578132         0.860047         1.372370
 H         2.555595         1.353422         2.804574
 H         1.301149         2.067347        -1.407849
