19
Iteration:   166charge 0 multiplicity 1
 C        -0.107149         0.047301         0.079322
 C         1.409177        -0.136773         0.176541
 C         2.393000        -1.052988        -0.683185
 C         3.382420         0.082366        -0.375094
 C         3.713925        -0.051934         1.039200
 C         2.341956         0.408142         1.353476
 O         1.934485         0.586458         2.733259
 C         2.206775         1.100155         0.019555
 O         1.745080         2.200353        -0.667673
 H        -0.612646         0.623582         0.834577
 H        -0.211035         0.559245        -0.848331
 H        -0.507925        -0.917606         0.016079
 H         2.738174        -2.062769        -0.312184
 H         2.139861        -1.014210        -1.770293
 H         4.253679         0.160065        -1.040122
 H         3.976772        -1.039212         1.201320
 H         4.430919         0.697920         1.319287
 H         1.693055        -0.361630         2.969978
 H         1.344320         2.975930        -0.167202
