19
Iteration:   588charge 0 multiplicity 1
 C        -0.126863        -0.184941         0.057276
 C         1.400006        -0.246634         0.091332
 C         2.431869        -0.923621        -0.809123
 C         3.364983         0.144989        -0.397447
 C         3.666601        -0.079384         1.085597
 C         2.322226         0.370080         1.372476
 O         1.895956         0.695790         2.678057
 C         2.208583         1.013484         0.084751
 O         1.801656         2.215645        -0.481070
 H        -0.548943         0.813049         0.199785
 H        -0.457051        -0.435392        -0.953647
 H        -0.582600        -0.905597         0.735701
 H         2.817905        -1.863517        -0.603650
 H         2.020790        -0.875664        -1.860049
 H         4.099708         0.543924        -1.152153
 H         3.989125        -1.131493         1.356779
 H         4.372787         0.663256         1.460691
 H         1.604747         1.598733         2.693012
 H         2.508528         2.838005        -0.270160
