19
Iteration:  2272
 C        -0.091218        -0.418758         0.443940
 C         1.392930        -0.318823         0.128976
 C         2.421388        -1.094096        -0.710519
 C         3.337170         0.086409        -0.520502
 C         3.742859        -0.063059         1.017413
 C         2.360399         0.425918         1.255988
 O         1.917971         1.055959         2.417444
 C         2.197455         1.009374        -0.113981
 O         1.785908         2.320862        -0.251587
 H        -0.381659        -0.362797         1.530820
 H        -0.872391         0.213910        -0.070719
 H        -0.396877        -1.420456         0.142888
 H         2.642087        -2.141733        -0.437480
 H         2.133658        -1.049059        -1.809979
 H         4.053916         0.446128        -1.306326
 H         3.916363        -1.174467         1.355668
 H         4.536592         0.597536         1.434397
 H         1.853172         1.954015         2.021418
 H         1.125558         2.359896        -0.956310
