19
Iteration:  2646
 C        -0.109879        -0.144020         0.391288
 C         1.489633        -0.286724         0.211769
 C         2.313729        -0.954010        -0.823139
 C         3.453503         0.216646        -0.548969
 C         3.862626        -0.103369         0.978835
 C         2.401376         0.326350         1.251517
 O         1.811301         0.624932         2.443027
 C         2.257962         1.066470        -0.008802
 O         1.614196         2.342633        -0.232085
 H        -0.489591         0.737699        -0.161669
 H        -0.559751        -1.079899         0.033801
 H        -0.467198        -0.206344         1.397696
 H         2.744041        -1.926854        -0.633733
 H         1.767730        -1.097953        -1.770279
 H         4.251171         0.347015        -1.284760
 H         4.146782        -1.179834         1.094734
 H         4.737545         0.555874         1.571420
 H         1.821018         1.546707         2.697830
 H         1.407792         2.331780        -1.174620
