19
Iteration:  2506
 C        -0.040779        -0.571863         0.668372
 C         1.407216        -0.127090         0.112843
 C         2.374810        -0.926007        -0.878229
 C         3.421632         0.112020        -0.577030
 C         3.734333        -0.076523         0.967480
 C         2.303994         0.389712         1.252759
 O         1.594262         0.732164         2.430919
 C         2.234093         1.132567        -0.082902
 O         1.999720         2.455151        -0.291920
 H        -0.074754        -1.710533         0.448162
 H        -0.014241        -0.412501         1.753177
 H        -0.904570         0.020666         0.207265
 H         2.380842        -1.959809        -0.483402
 H         1.934798        -1.037984        -1.916063
 H         4.268384         0.169081        -1.317042
 H         4.118866        -1.128938         1.142139
 H         4.422069         0.611152         1.204103
 H         1.951941         1.567071         2.760641
 H         1.385985         2.668329        -1.015213
