19
Iteration:  2148charge 0 multiplicity 1
 C        -0.038141        -0.473496         0.579894
 C         1.357547        -0.118632         0.276352
 C         2.230890        -0.930979        -0.666915
 C         3.400911         0.009971        -0.559176
 C         3.837166         0.046769         0.990800
 C         2.412243         0.501023         1.277727
 O         1.757003         0.622968         2.542719
 C         2.173437         1.097646        -0.128333
 O         1.879810         2.425289        -0.626765
 H        -0.811033         0.289861         0.581122
 H        -0.389736        -1.177290        -0.184670
 H        -0.226144        -1.023888         1.583513
 H         2.396093        -1.989849        -0.355456
 H         1.826033        -1.026228        -1.694149
 H         4.152523         0.298232        -1.249666
 H         3.926460        -0.933396         1.271801
 H         4.721365         0.759733         1.215762
 H         2.433236         1.184891         2.983933
 H         1.490447         2.234673        -1.486844
