19
Iteration:  4050
 C        -0.177674        -0.285941         0.246391
 C         1.301653        -0.075312        -0.006891
 C         2.139956        -0.406661        -1.259668
 C         3.399262         0.357213        -0.697733
 C         3.888587        -0.343368         0.645698
 C         2.362121         0.075754         1.217179
 O         2.054357         0.116316         2.563176
 C         2.213859         1.194312         0.324201
 O         1.811287         2.566653         0.425752
 H        -0.638845        -0.830432        -0.567132
 H        -0.400479        -0.808165         1.178162
 H        -0.622698         0.739781         0.430209
 H         2.287143        -1.491200        -1.415644
 H         1.688135        -0.008236        -2.181769
 H         3.832019         1.072532        -1.520850
 H         4.180645        -1.433504         0.401052
 H         4.748469         0.141111         1.109599
 H         1.191364        -0.365760         2.701397
 H         2.555985         2.826835         1.003481
