19
Iteration:  3232charge 0 multiplicity 1
 C        -0.082288        -0.467046         0.397032
 C         1.381854        -0.118714         0.101016
 C         2.176376        -0.773461        -0.968830
 C         3.297232         0.205832        -0.614438
 C         3.754166        -0.227803         0.779391
 C         2.358439         0.297611         1.290476
 O         2.083709         0.478633         2.643074
 C         2.183801         1.192522         0.058966
 O         1.856480         2.558388        -0.087481
 H        -0.724100        -0.288336        -0.411674
 H        -0.163656        -1.501734         0.815181
 H        -0.515300         0.081769         1.254009
 H         2.234126        -1.868318        -0.911182
 H         1.990171        -0.594506        -2.047995
 H         3.995938         0.570629        -1.405530
 H         3.845026        -1.298919         0.964979
 H         4.599037         0.561976         1.113121
 H         1.104875         0.512651         2.798938
 H         1.965668         2.898255        -0.997877
