19
Iteration:  2545
 C        -0.008604        -0.591438         0.553879
 C         1.398103        -0.207970         0.161521
 C         2.271691        -0.901044        -0.918585
 C         3.333468         0.139147        -0.531675
 C         3.704982        -0.143899         0.986176
 C         2.343156         0.457674         1.299288
 O         1.752794         0.677770         2.547656
 C         2.168767         1.178087        -0.089535
 O         1.997912         2.492456        -0.364036
 H         0.005863        -1.254132         1.401783
 H        -0.669287         0.213303         0.926461
 H        -0.553902        -1.083853        -0.266500
 H         2.610836        -1.950701        -0.784403
 H         2.125972        -0.701419        -1.971632
 H         4.184007         0.229242        -1.168260
 H         3.830557        -1.180979         1.246754
 H         4.596240         0.597153         1.370979
 H         1.688301         1.652792         2.679746
 H         1.829052         2.563292        -1.332942
