19
Iteration:   839
 C        -0.069713        -0.001271         0.428746
 C         1.419155        -0.119135         0.044143
 C         2.446481        -1.052037        -0.661584
 C         3.399535         0.213151        -0.382006
 C         3.742245         0.137546         1.110473
 C         2.279144         0.285925         1.325442
 O         1.706952         0.205764         2.629624
 C         2.207600         1.149410        -0.149140
 O         1.856912         2.277899        -0.777620
 H        -0.286526         1.110374         0.573461
 H        -0.864805        -0.354771        -0.272089
 H        -0.137789        -0.416589         1.460603
 H         2.510038        -2.059373        -0.150564
 H         2.117857        -1.175782        -1.739851
 H         4.291996         0.319088        -1.052471
 H         4.269521        -0.751691         1.546808
 H         4.324354         1.063865         1.284450
 H         1.544643         1.112212         2.993144
 H         2.307410         2.996389        -0.316288
