19
Iteration:  4409charge 0 multiplicity 1
 C        -0.025886        -0.059822         0.374887
 C         1.355788         0.135896         0.002610
 C         2.114250        -0.208399        -1.256720
 C         3.290002         0.515525        -0.629478
 C         3.804052        -0.358129         0.543596
 C         2.443852        -0.112265         1.178502
 O         2.028531        -0.410582         2.464002
 C         2.255461         1.267759         0.429216
 O         1.775534         2.542777         0.389652
 H        -0.453053         0.890864         0.660486
 H        -0.674041        -0.430419        -0.423005
 H        -0.278551        -0.865233         1.107190
 H         2.300895        -1.185404        -1.676141
 H         1.658600         0.316837        -2.066417
 H         3.956693         1.029535        -1.262979
 H         3.972903        -1.411889         0.308450
 H         4.573190         0.111405         1.255136
 H         1.162079        -0.744376         2.225071
 H         2.272632         2.955220         1.091317
