19
Iteration:  2491
 C         0.001474        -0.550515         0.478817
 C         1.378481        -0.260805         0.180372
 C         2.274740        -1.009199        -0.749053
 C         3.407332         0.097716        -0.553822
 C         3.772905        -0.086928         0.919638
 C         2.373824         0.450637         1.214622
 O         1.678138         0.773289         2.412805
 C         2.148579         1.105876        -0.051990
 O         1.963688         2.508034        -0.252630
 H        -0.447968        -1.362282        -0.033079
 H        -0.244972        -0.655940         1.536421
 H        -0.689221         0.180683         0.176850
 H         2.798566        -1.933029        -0.545402
 H         1.935695        -0.933574        -1.782628
 H         4.117336         0.495780        -1.244831
 H         4.013642        -0.996115         1.422639
 H         4.679066         0.597831         1.343326
 H         2.158295         1.513163         2.862871
 H         1.318473         2.604584        -0.994084
