19
Iteration:  3641charge 0 multiplicity 1
 C        -0.063731        -0.405744         0.474443
 C         1.378030        -0.026271         0.016171
 C         2.221345        -0.602815        -1.122168
 C         3.314880         0.304342        -0.538211
 C         3.701159        -0.287184         0.778187
 C         2.383194         0.256178         1.249025
 O         1.965455         0.223170         2.577734
 C         2.215848         1.246237         0.096714
 O         1.897604         2.586848         0.057214
 H        -0.205428        -1.332083        -0.038301
 H        -0.298211        -0.656122         1.531024
 H        -0.748865         0.337884         0.232959
 H         2.525753        -1.649830        -1.271615
 H         1.820563        -0.158944        -2.052498
 H         4.131678         0.572541        -1.266438
 H         3.903815        -1.327907         0.781773
 H         4.654196         0.257118         1.071160
 H         1.452699        -0.613059         2.730157
 H         1.352946         2.769095        -0.739938
