19
Iteration:   974
 C        -0.134689        -0.385914         0.294157
 C         1.364207        -0.285705         0.161663
 C         2.326380        -1.072210        -0.710982
 C         3.441366         0.131479        -0.530257
 C         3.889885         0.002317         1.010942
 C         2.310114         0.308063         1.259880
 O         1.575061         0.888088         2.268227
 C         2.174132         0.979755        -0.123754
 O         2.097423         2.398668         0.010874
 H        -0.406556        -0.174747         1.323832
 H        -0.717996         0.221426        -0.421724
 H        -0.421886        -1.450730         0.198966
 H         2.812399        -1.952113        -0.230448
 H         1.990719        -1.421683        -1.771515
 H         3.874869         0.527182        -1.368073
 H         4.228478        -0.962665         1.413189
 H         4.516061         0.780931         1.369525
 H         1.545988         1.869436         1.958184
 H         1.562629         2.810006        -0.700855
