19
Iteration:  4157
 C        -0.063379        -0.192177         0.411051
 C         1.433300        -0.017145         0.029794
 C         2.172049        -0.311059        -1.239383
 C         3.312035         0.447928        -0.691729
 C         3.841259        -0.419683         0.615228
 C         2.442758        -0.027351         1.177687
 O         1.885899        -0.026518         2.461577
 C         2.205856         1.191749         0.389615
 O         1.760923         2.571494         0.330413
 H        -0.376290         0.230823         1.378876
 H        -0.652177         0.372212        -0.324383
 H        -0.371309        -1.265443         0.400431
 H         2.244514        -1.367074        -1.616362
 H         1.786731         0.401149        -2.008545
 H         4.044112         0.927226        -1.450022
 H         3.946679        -1.468278         0.606363
 H         4.646853         0.148983         1.204341
 H         2.066202        -0.991804         2.647983
 H         2.384652         3.183498         0.767576
