19
Iteration:  3458charge 0 multiplicity 1
 C         0.062130        -0.363332         0.573449
 C         1.420946        -0.063499         0.024688
 C         2.215743        -0.775283        -1.043849
 C         3.268695         0.329348        -0.604732
 C         3.765889        -0.163812         0.823234
 C         2.360031         0.314600         1.212328
 O         1.829417         0.302495         2.533866
 C         2.253387         1.159938         0.117924
 O         1.902829         2.492301        -0.105460
 H        -0.099160        -1.160323         1.359426
 H        -0.164304         0.536567         1.138596
 H        -0.682930        -0.292740        -0.211852
 H         2.612383        -1.771791        -0.917718
 H         1.894788        -0.553991        -2.054372
 H         4.051730         0.834483        -1.213732
 H         4.134503        -1.259091         0.959466
 H         4.529360         0.411782         1.227064
 H         1.079645        -0.309967         2.539805
 H         0.972882         2.562855        -0.343988
