19
Iteration:  4859charge 0 multiplicity 1
 C        -0.099381         0.226855         0.322487
 C         1.387557         0.014269        -0.057356
 C         2.129135        -0.064310        -1.372198
 C         3.359438         0.604998        -0.632955
 C         3.804480        -0.399786         0.368476
 C         2.434220        -0.182654         1.052134
 O         2.070703        -0.515394         2.376406
 C         2.235630         1.233961         0.438017
 O         1.714525         2.384480         0.967882
 H        -0.076728         0.596120         1.347954
 H        -0.658937         0.984425        -0.274351
 H        -0.686578        -0.704362         0.317092
 H         2.070997        -0.979284        -1.880857
 H         1.780998         0.590399        -2.235974
 H         4.065854         1.042686        -1.330458
 H         4.045599        -1.438835         0.162441
 H         4.650486         0.037438         0.899121
 H         1.660912        -1.425401         2.372527
 H         1.776152         3.127771         0.297706
