19
Iteration:  4470
 C        -0.140163        -0.091565         0.122733
 C         1.333183         0.125479        -0.073245
 C         2.020613        -0.272039        -1.330157
 C         3.245232         0.514987        -0.618865
 C         3.822283        -0.365018         0.542655
 C         2.431000        -0.099420         1.066191
 O         2.097960        -0.125561         2.560208
 C         2.307472         1.181420         0.308832
 O         1.831650         2.428845         0.777433
 H        -0.517921         0.144037        -0.924495
 H        -0.542462        -1.084972         0.408689
 H        -0.427646         0.769851         0.719589
 H         2.270639        -1.304225        -1.638678
 H         1.593010         0.375195        -2.168213
 H         3.877978         1.107029        -1.384623
 H         4.068827        -1.395757         0.256038
 H         4.523783        -0.036024         1.277353
 H         2.135319        -1.080497         2.775901
 H         2.113504         2.681145         1.656252
