19
Iteration:   834charge 0 multiplicity 1
 C        -0.038310        -0.004023         0.411646
 C         1.423861        -0.098790         0.053135
 C         2.429803        -1.076426        -0.628474
 C         3.429587         0.194100        -0.379907
 C         3.749254         0.122715         1.040503
 C         2.264630         0.238103         1.342668
 O         1.684800         0.232475         2.608649
 C         2.189018         1.141108        -0.114467
 O         1.848939         2.327733        -0.763994
 H        -0.206406         1.041549         0.562444
 H        -0.801084        -0.397662        -0.236034
 H        -0.148635        -0.329345         1.454704
 H         2.676830        -2.017424        -0.167738
 H         2.272151        -1.312031        -1.661558
 H         4.272939         0.137897        -1.095852
 H         4.229849        -0.736622         1.513747
 H         4.277910         1.099327         1.276918
 H         1.613166         1.158489         2.922704
 H         2.089373         3.137993        -0.233093
