19
Iteration:   685charge 0 multiplicity 1
 C        -0.135308        -0.336776         0.437269
 C         1.342293        -0.284247         0.161477
 C         2.348889        -1.125112        -0.771447
 C         3.434171         0.170987        -0.468868
 C         3.807972         0.108559         1.104143
 C         2.332701         0.397377         1.220670
 O         1.656833         0.753004         2.384110
 C         2.217408         1.018122        -0.077694
 O         2.058263         2.356674        -0.398622
 H        -0.484991         0.137292         1.369457
 H        -0.707352         0.299635        -0.261121
 H        -0.521933        -1.348845         0.213794
 H         2.739219        -2.200475        -0.577170
 H         2.251952        -0.916347        -1.882853
 H         4.154143         0.658943        -1.216779
 H         4.137133        -0.797899         1.570703
 H         4.419184         0.958906         1.400182
 H         0.875482         0.245185         2.512822
 H         1.722745         2.790692         0.396337
