19
Iteration:  4266charge 0 multiplicity 1
 C        -0.110290        -0.170139         0.248574
 C         1.290923        -0.109636         0.004434
 C         2.176672        -0.349537        -1.272288
 C         3.269906         0.449767        -0.659984
 C         3.803344        -0.321239         0.558514
 C         2.383436        -0.024460         1.062333
 O         2.115315        -0.017413         2.507836
 C         2.163747         1.226852         0.221908
 O         1.863554         2.545915         0.693653
 H        -0.568719        -0.744694        -0.612883
 H        -0.385293        -0.684037         1.198942
 H        -0.572916         0.855371         0.188810
 H         2.475713        -1.362541        -1.565711
 H         1.780785         0.100638        -2.202732
 H         3.962616         0.799275        -1.501296
 H         3.898654        -1.432308         0.431577
 H         4.603709        -0.046085         1.386375
 H         1.156730        -0.095622         2.661357
 H         2.460924         2.693135         1.422598
