19
Iteration:  1916
 C        -0.117293        -0.500536         0.351533
 C         1.424442        -0.253054         0.254312
 C         2.230771        -1.018396        -0.665175
 C         3.321933         0.062750        -0.564100
 C         3.781514         0.015561         0.966727
 C         2.347055         0.488215         1.272258
 O         1.988152         0.820174         2.625825
 C         2.209504         1.067716        -0.103532
 O         1.824551         2.358615        -0.477434
 H        -0.613250         0.490036         0.234054
 H        -0.141626        -0.946388        -0.600766
 H        -0.644564        -1.147245         1.057797
 H         2.449666        -2.074451        -0.467925
 H         1.796426        -1.012488        -1.676140
 H         4.020588         0.368820        -1.431064
 H         4.201240        -0.867369         1.436404
 H         4.442257         1.014857         1.078338
 H         2.451354         1.669702         2.808167
 H         0.863928         2.267185        -0.384868
