19
Iteration:  3605charge 0 multiplicity 1
 C        -0.011768        -0.381373         0.506083
 C         1.366054        -0.139867         0.080175
 C         2.153830        -0.695811        -1.130649
 C         3.328181         0.374697        -0.561684
 C         3.865546        -0.241197         0.807131
 C         2.425265         0.235819         1.217667
 O         1.841831         0.357334         2.457971
 C         2.186602         1.148466         0.021434
 O         1.904976         2.526242         0.177054
 H        -0.667297        -0.071873        -0.241930
 H        -0.141128        -1.416107         0.881518
 H        -0.348633         0.344423         1.243842
 H         2.415652        -1.728985        -1.295705
 H         1.758880        -0.252831        -2.039867
 H         4.044559         0.851934        -1.188645
 H         4.010075        -1.324057         0.716233
 H         4.812561         0.281988         1.207614
 H         1.118191        -0.319375         2.513472
 H         1.489450         2.858624        -0.652616
