19
Iteration:  4482charge 0 multiplicity 1
 C        -0.150550        -0.098071         0.035101
 C         1.310467         0.034434        -0.019457
 C         2.081525        -0.244763        -1.304832
 C         3.290570         0.553967        -0.722499
 C         3.730698        -0.366157         0.515426
 C         2.369580        -0.051573         1.197075
 O         2.118576        -0.136842         2.513024
 C         2.188658         1.192521         0.343079
 O         1.953685         2.450419         0.801081
 H        -0.646047        -0.290034        -0.961917
 H        -0.364974        -0.959199         0.700125
 H        -0.708052         0.718924         0.514728
 H         2.185336        -1.337803        -1.585807
 H         1.699463         0.307531        -2.221006
 H         3.976195         1.133769        -1.416601
 H         4.009872        -1.404410         0.311894
 H         4.528810         0.158056         1.060330
 H         2.415964        -0.960649         2.886782
 H         2.101521         2.330260         1.756050
