19
Iteration:  1733charge 0 multiplicity 1
 C        -0.055834        -0.402631         0.297098
 C         1.429331        -0.275891         0.246202
 C         2.313470        -1.023383        -0.698285
 C         3.280086         0.159953        -0.546074
 C         3.760827         0.044998         0.978951
 C         2.347523         0.389920         1.388395
 O         2.054206         0.968134         2.556633
 C         2.117809         1.033727         0.040214
 O         1.789027         2.239380        -0.587677
 H        -0.597100         0.248079         1.035859
 H        -0.347203        -0.127612        -0.714404
 H        -0.567221        -1.359956         0.498560
 H         2.816989        -1.987496        -0.612218
 H         1.889667        -1.014604        -1.737938
 H         4.101781         0.272416        -1.394400
 H         3.921956        -1.053713         1.324653
 H         4.564351         0.620686         1.302906
 H         1.635921         0.305255         3.116094
 H         0.978427         2.635803        -0.234260
