19
Iteration:   801charge 0 multiplicity 1
 C        -0.071112        -0.210851         0.260019
 C         1.444887        -0.154427         0.181091
 C         2.339389        -1.078211        -0.669218
 C         3.426505         0.140500        -0.443168
 C         3.785264        -0.033248         1.037435
 C         2.401286         0.515405         1.316259
 O         1.644096         0.597821         2.450686
 C         2.231975         1.058067        -0.100280
 O         1.825973         2.290962        -0.468729
 H        -0.417968         0.812093         0.244630
 H        -0.564531        -0.709794        -0.570734
 H        -0.435055        -0.695889         1.172985
 H         2.830141        -1.968666        -0.401780
 H         2.079139        -1.015884        -1.697383
 H         4.225152         0.264193        -1.149097
 H         3.918702        -1.068320         1.427945
 H         4.671664         0.595286         1.365833
 H         2.173114         0.930357         3.156660
 H         1.491446         2.754366         0.311335
