19
Iteration:  2083charge 0 multiplicity 1
 C        -0.061477        -0.443057         0.514034
 C         1.393641        -0.260356         0.167147
 C         2.318229        -1.059628        -0.785633
 C         3.433162        -0.034215        -0.501944
 C         3.775909        -0.026053         0.961985
 C         2.363892         0.335545         1.243017
 O         1.926647         1.052262         2.289060
 C         2.201616         1.054543        -0.124162
 O         1.729598         2.360179        -0.114950
 H        -0.494420         0.497906         0.824217
 H        -0.572524        -0.793701        -0.379482
 H        -0.222676        -1.179820         1.385909
 H         2.617148        -2.051038        -0.375771
 H         1.922973        -1.288188        -1.798318
 H         4.083564         0.337453        -1.241713
 H         4.120948        -1.069897         1.396996
 H         4.538219         0.779343         1.198491
 H         1.396625         1.850448         2.023437
 H         1.214192         2.492246        -0.940188
