19
Iteration:  2496charge 0 multiplicity 1
 C        -0.014588        -0.562478         0.569449
 C         1.387534        -0.203578         0.140138
 C         2.314924        -0.960233        -0.791698
 C         3.441785         0.067479        -0.583667
 C         3.775305        -0.082800         0.921316
 C         2.355642         0.425120         1.240556
 O         1.633193         0.764532         2.426648
 C         2.139170         1.119187        -0.066563
 O         1.988675         2.501263        -0.263218
 H        -0.366094        -1.583795         0.099080
 H        -0.192531        -0.618848         1.661236
 H        -0.726990         0.220454         0.095861
 H         2.793750        -1.936357        -0.500471
 H         1.814470        -0.996960        -1.800245
 H         4.258185         0.501388        -1.224558
 H         3.973264        -1.098067         1.415708
 H         4.473534         0.584085         1.207526
 H         2.089538         1.511124         2.817573
 H         1.332877         2.508273        -0.973415
