19
Iteration:  3429charge 0 multiplicity 1
 C        -0.136475        -0.510089         0.423346
 C         1.304268        -0.112883         0.136999
 C         2.211187        -0.776769        -0.927500
 C         3.362577         0.233318        -0.569179
 C         3.819683        -0.088272         0.775960
 C         2.356982         0.262736         1.210549
 O         1.966675         0.310727         2.601599
 C         2.198038         1.262365         0.025637
 O         1.977551         2.608910        -0.117671
 H        -0.428396        -1.553054         0.386044
 H        -0.399843        -0.334181         1.533676
 H        -0.746337         0.119280        -0.328550
 H         2.447890        -1.873535        -0.912326
 H         1.832507        -0.397216        -1.891789
 H         4.146350         0.556649        -1.251787
 H         4.178607        -1.121765         0.783001
 H         4.530415         0.712005         1.211339
 H         1.045012         0.003726         2.806887
 H         1.105241         2.900813        -0.410654
