19
Iteration:  4760charge 0 multiplicity 1
 C        -0.164265        -0.432767         0.061703
 C         1.216547         0.128012        -0.050857
 C         1.961723        -0.008489        -1.374138
 C         3.210850         0.581105        -0.655196
 C         3.686163        -0.387716         0.496292
 C         2.343808        -0.040034         1.117913
 O         2.009264        -0.391373         2.440645
 C         2.265349         1.288044         0.461380
 O         2.279649         2.661518         0.902578
 H        -0.066232        -1.381587        -0.490252
 H        -0.413669        -0.645439         1.135534
 H        -1.036083         0.101174        -0.344127
 H         2.285627        -0.976440        -1.832073
 H         1.591735         0.685287        -2.269125
 H         4.011144         1.168249        -1.228876
 H         4.043660        -1.379143         0.238638
 H         4.494907         0.058619         1.131828
 H         1.439373        -1.185679         2.469420
 H         2.992641         2.656291         1.614061
