19
Iteration:  2243
 C         0.014394        -0.255488         0.470336
 C         1.503437        -0.237714         0.189316
 C         2.372583        -1.041992        -0.688263
 C         3.457531        -0.028476        -0.546977
 C         3.858607        -0.109045         0.999265
 C         2.393669         0.394431         1.250309
 O         1.738289         0.986525         2.368586
 C         2.249257         1.059174        -0.073306
 O         1.563923         2.278068        -0.277343
 H        -0.271849         0.074509         1.447352
 H        -0.614753         0.262804        -0.244715
 H        -0.306658        -1.285243         0.413275
 H         2.493588        -2.119518        -0.588297
 H         2.073128        -0.866599        -1.705261
 H         4.175105         0.044375        -1.377746
 H         3.859076        -1.206681         1.309386
 H         4.629153         0.525684         1.295390
 H         2.202192         1.860796         2.359045
 H         0.926316         2.080096        -1.003709
