19
Iteration:   744charge 0 multiplicity 1
 C        -0.096581        -0.790095         0.145813
 C         1.312171        -0.215477         0.084728
 C         2.327014        -0.923853        -0.784274
 C         3.409342         0.136171        -0.429019
 C         3.620875        -0.217465         1.150942
 C         2.300359         0.474345         1.228275
 O         1.904453         1.205140         2.328076
 C         2.112685         1.061097        -0.073025
 O         1.968997         2.382218        -0.160759
 H        -0.602957        -0.186843         0.905228
 H        -0.592216        -0.609664        -0.801352
 H        -0.175616        -1.772664         0.541420
 H         2.648866        -1.922207        -0.575401
 H         2.168023        -0.938411        -1.919660
 H         4.250255         0.393888        -1.015192
 H         3.562023        -1.265513         1.552498
 H         4.536036         0.255313         1.518046
 H         2.173528         0.625707         3.126691
 H         2.420782         2.719759         0.668504
