19
Iteration:  3783
 C        -0.134922        -0.352479         0.427095
 C         1.381758        -0.107154         0.103968
 C         2.212401        -0.516036        -1.156382
 C         3.315841         0.407734        -0.693931
 C         3.763683        -0.307431         0.721432
 C         2.384161         0.110124         1.262392
 O         1.907526         0.137958         2.603320
 C         2.241321         1.231461         0.145310
 O         1.989082         2.638039         0.142430
 H        -0.774645         0.458321         0.001282
 H        -0.412709        -1.410282         0.053415
 H        -0.353709        -0.536767         1.461787
 H         2.555703        -1.528771        -1.273977
 H         1.581808        -0.188407        -1.985634
 H         3.979231         0.970775        -1.391280
 H         4.136352        -1.331057         0.712210
 H         4.588152         0.404318         1.177698
 H         1.353970        -0.684755         2.656630
 H         1.241397         2.806084        -0.473471
