19
Iteration:  2716charge 0 multiplicity 1
 C        -0.053009        -0.746016         0.482544
 C         1.321613        -0.148172         0.262236
 C         2.247219        -0.840243        -0.791346
 C         3.330961         0.214060        -0.576090
 C         3.770866        -0.073797         0.898367
 C         2.303912         0.385168         1.253247
 O         1.696497         0.609179         2.522901
 C         2.218992         1.235069        -0.016073
 O         2.150304         2.525724        -0.418758
 H        -0.431969        -1.443375        -0.226707
 H        -0.208630        -1.068814         1.477427
 H        -0.862366         0.055189         0.466090
 H         2.501610        -1.899066        -0.660900
 H         1.689759        -0.840784        -1.734562
 H         4.097429         0.407888        -1.335909
 H         4.042448        -1.276965         0.875998
 H         4.652697         0.465538         1.202563
 H         2.222363         1.201454         3.063027
 H         1.265103         2.906210        -0.380909
