19
Iteration:  1893charge 0 multiplicity 1
 C        -0.171935        -0.563261         0.192736
 C         1.362059        -0.135245         0.225826
 C         2.307219        -1.024504        -0.550963
 C         3.291769         0.102927        -0.597288
 C         3.855796        -0.090899         0.902422
 C         2.402329         0.355197         1.318883
 O         2.004284         0.951036         2.535662
 C         2.075361         1.081259        -0.020873
 O         1.822891         2.359241        -0.362712
 H        -0.722850         0.388893         0.211860
 H        -0.323827        -1.256678        -0.580374
 H        -0.398946        -0.981428         1.162530
 H         2.618836        -2.016552        -0.210411
 H         1.808042        -1.208238        -1.498291
 H         4.176059         0.380254        -1.263461
 H         4.260226        -1.060781         1.102460
 H         4.657026         0.806061         1.072380
 H         2.549170         1.732674         2.646959
 H         0.870203         2.521201        -0.487585
