19
Iteration:  4452
 C        -0.160753         0.019261         0.210595
 C         1.363629         0.014650         0.005607
 C         2.152264        -0.208954        -1.326348
 C         3.387540         0.501601        -0.712260
 C         3.776911        -0.407160         0.472615
 C         2.427127        -0.085692         1.203869
 O         2.082914        -0.162883         2.448637
 C         2.187713         1.179645         0.374207
 O         1.744690         2.433467         0.719838
 H        -0.748839         0.569035        -0.559089
 H        -0.515809        -1.045587         0.224278
 H        -0.398038         0.325287         1.258585
 H         2.314311        -1.314573        -1.609357
 H         1.768641         0.362451        -2.186591
 H         4.137376         0.978165        -1.314414
 H         4.156244        -1.431217         0.349258
 H         4.674312         0.145594         0.992657
 H         1.566387        -0.963026         2.692821
 H         2.391523         2.836244         1.310827
