19
Iteration:   478charge 0 multiplicity 1
 C        -0.115743        -0.665584         0.251110
 C         1.332110        -0.126657         0.029707
 C         2.297113        -0.912978        -0.885567
 C         3.370267         0.102820        -0.418668
 C         3.649253        -0.146798         1.168804
 C         2.312342         0.436786         1.296636
 O         1.734250         0.830749         2.584651
 C         2.211248         1.120220         0.001057
 O         2.205135         2.419427        -0.438404
 H        -0.644143        -0.249270         1.086377
 H        -0.848897        -0.624504        -0.553939
 H        -0.046676        -1.735346         0.330231
 H         2.450686        -1.952827        -0.750849
 H         1.948095        -0.759667        -1.957970
 H         4.155678         0.399329        -1.067853
 H         3.747820        -1.160397         1.640676
 H         4.462879         0.518122         1.515356
 H         1.589532         1.799708         2.549396
 H         1.684367         3.043155         0.118174
