19
Iteration:  3804charge 0 multiplicity 1
 C        -0.084177        -0.421654         0.353051
 C         1.266479         0.066941         0.002383
 C         2.072012        -0.558327        -1.099892
 C         3.262148         0.373635        -0.596218
 C         3.766065        -0.159619         0.741562
 C         2.373350         0.140727         1.250271
 O         1.972903         0.028860         2.582731
 C         2.213345         1.247607         0.231995
 O         2.101719         2.613224         0.083073
 H        -0.770570        -0.133315        -0.456061
 H        -0.072571        -1.503211         0.645520
 H        -0.490738        -0.033045         1.263015
 H         2.219578        -1.638127        -1.047434
 H         1.914335        -0.254060        -2.136967
 H         4.097538         0.711934        -1.242913
 H         4.128699        -1.131303         0.586561
 H         4.585134         0.520472         1.233935
 H         1.763423        -0.910906         2.717092
 H         1.210528         2.798300        -0.228129
