19
Iteration:  1068
 C        -0.020740        -0.284728         0.229440
 C         1.455411        -0.163768         0.195684
 C         2.354195        -0.863417        -0.823526
 C         3.439057         0.139842        -0.366848
 C         3.732206        -0.068943         1.106516
 C         2.314818         0.365151         1.385408
 O         1.671961         0.558780         2.660394
 C         2.206942         1.106185        -0.056785
 O         1.939642         2.325854        -0.671245
 H        -0.496781         0.666696         0.578417
 H        -0.443482        -0.627707        -0.718591
 H        -0.275385        -0.926764         1.060200
 H         2.524104        -2.001741        -0.756429
 H         1.932647        -0.671679        -1.781878
 H         4.168668         0.489133        -1.111761
 H         3.821611        -1.132182         1.414283
 H         4.518805         0.487183         1.619457
 H         1.913084         1.437901         2.940329
 H         0.971143         2.325165        -0.543459
