19
Iteration:   317charge 0 multiplicity 1
 C        -0.189708        -0.540804         0.344400
 C         1.254880        -0.181899         0.015260
 C         2.331198        -1.003911        -0.820499
 C         3.377671         0.139163        -0.426362
 C         3.680243        -0.102254         1.030316
 C         2.217986         0.370569         1.294938
 O         1.723381         0.883512         2.549502
 C         2.204679         1.084717        -0.065290
 O         2.319943         2.462714        -0.383613
 H        -0.789489         0.402143         0.255097
 H        -0.549056        -1.306181        -0.411818
 H        -0.286546        -1.063287         1.331522
 H         2.460446        -2.073169        -0.591193
 H         1.992877        -1.042371        -1.808945
 H         4.204807         0.609866        -0.954178
 H         4.168247        -1.027121         1.475616
 H         4.360699         0.701355         1.352331
 H         2.008800         0.172403         3.197974
 H         1.419299         2.883192        -0.410684
