19
Iteration:  3782charge 0 multiplicity 1
 C        -0.126368        -0.351090         0.428077
 C         1.379182        -0.110934         0.107785
 C         2.213196        -0.510594        -1.151831
 C         3.312383         0.407356        -0.696069
 C         3.762722        -0.309307         0.727381
 C         2.388359         0.112291         1.256462
 O         1.906893         0.143338         2.600388
 C         2.234312         1.224418         0.142572
 O         1.983846         2.631858         0.146650
 H        -0.718220         0.496050         0.027298
 H        -0.439611        -1.388762         0.053234
 H        -0.371504        -0.561742         1.455935
 H         2.569847        -1.527000        -1.285855
 H         1.608179        -0.176902        -2.009108
 H         4.024940         0.952970        -1.388509
 H         4.117224        -1.316005         0.667518
 H         4.611108         0.386643         1.181354
 H         1.347898        -0.666655         2.645097
 H         1.244294         2.822170        -0.482268
