19
Iteration:  3552
 C        -0.170583        -0.315882         0.111240
 C         1.257019        -0.145124         0.067001
 C         2.245651        -0.757221        -0.919644
 C         3.270825         0.321026        -0.617583
 C         3.798832        -0.187581         0.797205
 C         2.439951         0.255483         1.236515
 O         2.102527         0.422166         2.538001
 C         2.104667         1.122968         0.168182
 O         1.866166         2.469050         0.210870
 H        -0.547688         0.704892         0.148746
 H        -0.594689        -0.689167        -0.918844
 H        -0.622041        -0.916644         0.856182
 H         2.634629        -1.799682        -0.819044
 H         1.707444        -0.681499        -1.887412
 H         3.926657         0.571545        -1.455885
 H         4.138147        -1.155815         0.910254
 H         4.646100         0.535410         1.142297
 H         2.702112        -0.118986         3.103759
 H         1.356939         2.736599        -0.584530
