19
Iteration:  3568
 C        -0.150380        -0.302833         0.218622
 C         1.325761        -0.093473         0.082993
 C         2.175516        -0.794044        -1.031181
 C         3.311697         0.285247        -0.628846
 C         3.830940        -0.104262         0.764391
 C         2.352167         0.132693         1.223448
 O         2.023096         0.434920         2.593544
 C         2.206062         1.154507         0.017660
 O         1.874987         2.486942         0.247618
 H        -0.878777         0.526918        -0.125665
 H        -0.429955        -1.108113        -0.442226
 H        -0.217890        -0.690118         1.294738
 H         2.343506        -1.858758        -0.738583
 H         1.988896        -0.718900        -2.118281
 H         4.053820         0.789953        -1.298610
 H         4.308198        -1.185821         0.843268
 H         4.448992         0.581807         1.246170
 H         2.271883        -0.309365         3.188313
 H         1.323766         2.861281        -0.485051
