19
Iteration:  4461charge 0 multiplicity 1
 C        -0.141124        -0.016619         0.184170
 C         1.321527         0.042165        -0.061514
 C         2.087319        -0.224654        -1.324128
 C         3.322334         0.501502        -0.666170
 C         3.833333        -0.409139         0.525333
 C         2.442454        -0.104906         1.089263
 O         2.088980        -0.132526         2.517073
 C         2.264233         1.186255         0.371363
 O         1.757925         2.441935         0.743780
 H        -0.681111         0.402961        -0.738857
 H        -0.460404        -1.094209         0.254882
 H        -0.562754         0.582710         1.038388
 H         2.155967        -1.359785        -1.596572
 H         1.609209         0.285125        -2.223865
 H         4.169645         1.018015        -1.176579
 H         4.117762        -1.411573         0.205990
 H         4.626256         0.201493         1.071643
 H         1.802841        -1.055229         2.695815
 H         2.314234         2.738313         1.472185
