19
Iteration:  2935
 C        -0.001177        -0.446811         0.494947
 C         1.392565        -0.147520         0.073139
 C         2.315427        -0.913728        -0.890699
 C         3.369396         0.237892        -0.612562
 C         3.767559        -0.171959         0.901851
 C         2.343570         0.295188         1.217658
 O         1.799506         0.642095         2.475579
 C         2.136958         1.148027        -0.017158
 O         1.781074         2.453023        -0.160927
 H        -0.564070        -0.667459        -0.438164
 H        -0.158974        -1.293943         1.143595
 H        -0.617995         0.367194         1.019586
 H         2.565749        -1.982739        -0.748593
 H         1.917097        -0.564665        -1.867287
 H         4.197726         0.461329        -1.301887
 H         4.015914        -1.168383         1.109615
 H         4.587003         0.474680         1.300318
 H         2.612900         0.834735         2.957322
 H         2.449405         2.975701         0.349644
