19
Iteration:  2473charge 0 multiplicity 1
 C        -0.115199        -0.472103         0.318233
 C         1.421453        -0.216738         0.223617
 C         2.344376        -1.033535        -0.727226
 C         3.325094         0.120635        -0.553087
 C         3.788226         0.004929         0.991415
 C         2.366980         0.375561         1.266483
 O         1.844139         0.811975         2.473676
 C         2.169780         1.087370        -0.105234
 O         1.854017         2.399522        -0.209526
 H        -0.325344        -1.093862        -0.696011
 H        -0.517160        -1.100231         1.165693
 H        -0.628779         0.548785         0.193115
 H         2.535171        -2.063773        -0.306963
 H         1.740601        -1.084296        -1.685586
 H         4.127663         0.302940        -1.317733
 H         4.163402        -1.073141         1.175235
 H         4.460722         0.697912         1.239537
 H         2.379395         1.605415         2.744429
 H         1.483821         2.457701        -1.129512
