19
Iteration:  1589
 C        -0.051646        -0.605484         0.413241
 C         1.378825        -0.162287         0.194214
 C         2.280797        -0.963095        -0.710225
 C         3.390852         0.132251        -0.472468
 C         3.766307        -0.098567         1.051856
 C         2.405217         0.502839         1.308873
 O         1.805257         0.874478         2.508080
 C         2.139640         1.128639        -0.054151
 O         1.822439         2.373256        -0.622946
 H        -0.820442         0.153920         0.627548
 H        -0.374792        -1.166659        -0.475169
 H        -0.077036        -1.341021         1.228741
 H         2.651250        -1.989936        -0.587236
 H         1.935088        -0.880733        -1.760952
 H         4.057641         0.466576        -1.336022
 H         3.897473        -1.224368         1.443873
 H         4.521105         0.502005         1.532980
 H         2.218866         0.277843         3.135980
 H         2.418170         3.012231        -0.190348
