19
Iteration:  2457charge 0 multiplicity 1
 C        -0.143364        -0.352949         0.149502
 C         1.335180        -0.264100         0.186704
 C         2.307824        -1.013875        -0.672800
 C         3.440343         0.105955        -0.537490
 C         3.809952        -0.029091         0.893280
 C         2.300624         0.387092         1.332488
 O         1.956129         0.839022         2.578429
 C         2.191264         1.009409        -0.028736
 O         1.752598         2.317450        -0.241667
 H        -0.517558        -0.629303        -0.787853
 H        -0.208444        -1.197992         0.878491
 H        -0.562609         0.490194         0.667176
 H         2.652074        -2.013243        -0.379812
 H         2.188950        -1.175985        -1.740724
 H         4.068174         0.256759        -1.405904
 H         4.254227        -0.851854         1.385130
 H         4.289760         1.104851         1.132138
 H         2.323179         1.753935         2.695205
 H         1.465653         2.615654        -1.126873
