19
Iteration:   938
 C        -0.055942        -0.432854         0.225376
 C         1.371492        -0.243387         0.104454
 C         2.344039        -1.055201        -0.771149
 C         3.474393        -0.007175        -0.536958
 C         3.740154        -0.053611         1.150050
 C         2.267994         0.332407         1.236960
 O         1.692420         0.973056         2.404836
 C         2.231608         1.013710        -0.130066
 O         1.906000         2.469477        -0.184621
 H        -0.432160        -0.153787         1.260910
 H        -0.667078         0.173907        -0.500772
 H        -0.190556        -1.497426        -0.033149
 H         2.579903        -2.055056        -0.443354
 H         1.952880        -1.051614        -1.795293
 H         4.331516         0.239268        -1.157336
 H         4.174564        -1.085179         1.422876
 H         4.510619         0.710270         1.392670
 H         2.464563         1.412442         2.883452
 H         1.408183         2.557852         0.664636
