19
Iteration:  1941charge 0 multiplicity 1
 C        -0.084034        -0.305938         0.608372
 C         1.408273        -0.257150         0.134330
 C         2.333353        -1.004219        -0.778781
 C         3.379289         0.142434        -0.481061
 C         3.807480         0.010984         0.948300
 C         2.394066         0.460443         1.326279
 O         1.844205         0.727598         2.562436
 C         2.138326         1.028863        -0.043260
 O         1.812750         2.306039        -0.624740
 H        -0.504661         0.589985         1.058784
 H        -0.530049        -0.626649        -0.345047
 H        -0.201206        -1.246375         1.202749
 H         2.673244        -2.009024        -0.475151
 H         2.103685        -1.080929        -1.870363
 H         3.978862         0.360351        -1.318065
 H         4.118575        -1.062768         1.247895
 H         4.489941         0.766988         1.315087
 H         2.202678         1.600844         2.874988
 H         0.836279         2.234252        -0.701299
