19
Iteration:  3291charge 0 multiplicity 1
 C        -0.120432        -0.279691         0.476222
 C         1.377223        -0.124513         0.119460
 C         2.189482        -0.786994        -1.025256
 C         3.324216         0.282389        -0.628437
 C         3.753247        -0.089038         0.843910
 C         2.379849         0.302607         1.284592
 O         2.025694         0.333700         2.626773
 C         2.167984         1.149238         0.045092
 O         1.914406         2.442560        -0.242336
 H        -0.576991        -0.963168        -0.251084
 H        -0.329917        -0.798153         1.441449
 H        -0.594589         0.682031         0.432452
 H         2.484981        -1.794424        -0.795420
 H         1.849338        -0.597369        -2.046935
 H         4.061520         0.687221        -1.304669
 H         4.168602        -1.091104         1.217747
 H         4.476858         0.655532         1.214005
 H         1.601968        -0.494943         2.870785
 H         1.167697         2.815266         0.252867
