19
Iteration:  3625charge 0 multiplicity 1
 C         0.013480        -0.405070         0.529339
 C         1.357783        -0.054284         0.088201
 C         2.232353        -0.571603        -1.134653
 C         3.384463         0.340102        -0.686974
 C         3.719844        -0.275190         0.716810
 C         2.368924         0.159174         1.234983
 O         1.840454         0.303974         2.524648
 C         2.276113         1.223862         0.198931
 O         1.878979         2.540475         0.081681
 H        -0.642850        -0.943664        -0.186089
 H         0.159748        -1.006436         1.429728
 H        -0.631770         0.508682         0.855253
 H         2.427950        -1.640068        -1.001870
 H         1.884876        -0.391347        -2.157248
 H         4.148765         0.721039        -1.333660
 H         3.963325        -1.395502         0.776107
 H         4.464501         0.310110         1.273753
 H         1.113483        -0.328441         2.696988
 H         1.571097         2.625117        -0.830766
