19
Iteration:  2590charge 0 multiplicity 1
 C        -0.147271        -0.391379         0.192139
 C         1.352981        -0.239467         0.145029
 C         2.316130        -1.000505        -0.718408
 C         3.348559         0.087104        -0.469932
 C         3.831839        -0.036837         0.972851
 C         2.361912         0.372409         1.291078
 O         1.978947         0.720624         2.505270
 C         2.148848         1.092781        -0.023208
 O         1.818454         2.421665        -0.219948
 H        -0.732013        -0.058458         1.040050
 H        -0.611251         0.162641        -0.645403
 H        -0.431634        -1.421164         0.026919
 H         2.524468        -2.040319        -0.448907
 H         1.833484        -0.887963        -1.690939
 H         3.925497         0.470810        -1.286442
 H         4.214741        -1.011244         1.274284
 H         4.594622         0.894243         1.186147
 H         2.464511         1.526432         2.778116
 H         1.106920         2.446683        -0.893953
