19
Iteration:  2810
 C        -0.085862        -0.208813         0.231065
 C         1.456506        -0.103090         0.230894
 C         2.325960        -0.964331        -0.878621
 C         3.389069         0.139314        -0.621929
 C         3.863290        -0.191126         0.840876
 C         2.466174         0.345551         1.327168
 O         1.817341         0.624031         2.613341
 C         2.276411         1.110537        -0.012174
 O         1.549674         2.296084        -0.192123
 H        -0.544659        -0.223928         1.264648
 H        -0.667992         0.658182        -0.211090
 H        -0.501723        -1.129138        -0.172855
 H         2.733431        -1.985088        -0.719903
 H         1.685446        -1.004794        -1.787132
 H         4.276999         0.420330        -1.234727
 H         4.188833        -1.148497         1.028565
 H         4.636019         0.582250         1.180397
 H         2.113544         1.535102         2.846734
 H         2.098661         2.997135         0.232488
