19
Iteration:  2479
 C        -0.096384        -0.509314         0.347942
 C         1.443355        -0.277625         0.232729
 C         2.320168        -1.051409        -0.737893
 C         3.284242         0.159050        -0.511664
 C         3.792872        -0.047757         1.001652
 C         2.370904         0.441473         1.259259
 O         1.794301         0.789212         2.405472
 C         2.190588         1.105087        -0.099616
 O         1.896573         2.454347        -0.225821
 H        -0.307249        -1.241232        -0.357275
 H        -0.287929        -0.930695         1.339300
 H        -0.536292         0.443446         0.214137
 H         2.391065        -2.099420        -0.451360
 H         1.927875        -1.042197        -1.748624
 H         3.950358         0.243930        -1.348508
 H         4.020181        -1.081866         1.093964
 H         4.629892         0.786036         1.277673
 H         2.279894         1.511080         2.812308
 H         1.407306         2.654886        -1.040074
