19
Iteration:  1443charge 0 multiplicity 1
 C         0.015402        -0.479602         0.406005
 C         1.406931        -0.248921         0.167694
 C         2.361179        -0.902856        -0.904862
 C         3.324786         0.143713        -0.426924
 C         3.715139        -0.013479         1.069926
 C         2.304082         0.418364         1.339433
 O         1.708053         0.827697         2.597191
 C         2.218666         1.077032        -0.008307
 O         1.906880         2.317806        -0.568056
 H        -0.355491         0.290343         1.061187
 H        -0.614394        -0.400170        -0.513818
 H        -0.112106        -1.518843         0.787048
 H         2.865294        -1.897425        -0.826827
 H         2.026387        -0.785632        -1.943619
 H         4.194231         0.409231        -0.990267
 H         4.026319        -1.039836         1.460465
 H         4.586510         0.674433         1.272699
 H         2.497472         0.649502         3.178227
 H         1.084416         2.336542        -1.098399
