19
Iteration:  2613
 C        -0.081008        -0.197177         0.196252
 C         1.377421        -0.287898         0.159473
 C         2.354533        -1.028438        -0.797910
 C         3.417829         0.088316        -0.596865
 C         3.789995         0.004303         0.895575
 C         2.383569         0.341582         1.317862
 O         1.882458         0.764859         2.613066
 C         2.215275         1.046659        -0.099806
 O         1.698451         2.302633        -0.109536
 H        -0.584843         0.706557         0.559603
 H        -0.474628        -0.309355        -0.833598
 H        -0.504129        -0.986975         0.770380
 H         2.816945        -1.935767        -0.435638
 H         1.847226        -1.092532        -1.773535
 H         4.210017         0.067388        -1.342957
 H         4.218822        -0.981241         1.230560
 H         4.442651         1.000711         1.247761
 H         2.452098         1.472636         2.987734
 H         0.986756         2.335627        -0.780938
