19
Iteration:  4075charge 0 multiplicity 1
 C        -0.135318        -0.193913         0.112198
 C         1.350425        -0.060794         0.092033
 C         2.174662        -0.445643        -1.205953
 C         3.206062         0.450818        -0.683742
 C         3.721618        -0.276878         0.633936
 C         2.394514         0.057963         1.195183
 O         2.170075         0.082519         2.618542
 C         2.180043         1.186204         0.203908
 O         1.886166         2.440550         0.465647
 H        -0.278988        -1.195765        -0.315108
 H        -0.630727        -0.156625         1.093047
 H        -0.620212         0.617137        -0.459324
 H         2.439673        -1.490496        -1.224504
 H         1.618303        -0.245920        -2.117906
 H         3.975204         0.922574        -1.271278
 H         4.166536        -1.283837         0.476719
 H         4.505741         0.358493         0.852184
 H         1.188318         0.010290         2.638437
 H         2.241770         2.441056         1.403297
