19
Iteration:   926
 C        -0.081042        -0.456284         0.216632
 C         1.448667        -0.238062         0.102527
 C         2.363215        -1.038027        -0.831290
 C         3.402296         0.064061        -0.458561
 C         3.688374        -0.109416         1.181465
 C         2.347673         0.454604         1.254694
 O         1.767385         0.902270         2.444266
 C         2.173208         1.082066        -0.092716
 O         1.851980         2.395764        -0.304429
 H        -0.565926        -0.179445         1.203714
 H        -0.542709         0.118251        -0.624332
 H        -0.396236        -1.514589         0.103672
 H         2.511433        -2.084137        -0.648725
 H         2.027559        -0.909881        -1.834705
 H         4.345155         0.140096        -1.087053
 H         3.717457        -1.156358         1.656359
 H         4.488570         0.580266         1.603065
 H         2.498456         1.272300         2.948448
 H         2.089734         2.834452         0.528931
