19
Iteration:  4175charge 0 multiplicity 1
 C        -0.078185        -0.206715         0.420925
 C         1.353908         0.039202        -0.060491
 C         2.100707        -0.279350        -1.318958
 C         3.361901         0.450590        -0.573424
 C         3.774423        -0.378594         0.631092
 C         2.484096         0.089819         1.242895
 O         1.910801        -0.171722         2.538527
 C         2.255329         1.246377         0.230692
 O         1.783647         2.524345         0.302393
 H        -0.397260         0.683911         1.053151
 H        -0.851370        -0.258618        -0.391517
 H        -0.071305        -1.122514         1.015153
 H         2.319055        -1.307492        -1.583431
 H         1.776309         0.229778        -2.222997
 H         4.207208         0.978959        -0.962852
 H         3.823307        -1.503651         0.364010
 H         4.667734         0.021804         1.175255
 H         2.160169        -1.013627         3.011059
 H         2.422832         3.071500         0.796098
