19
Iteration:    39charge 0 multiplicity 1
 C        -0.051044        -0.683940         0.260571
 C         1.317867        -0.196780         0.161951
 C         2.230449        -0.927812        -0.723435
 C         3.329149         0.121352        -0.488476
 C         3.640141        -0.019587         1.023641
 C         2.219327         0.383199         1.234212
 O         1.777045         0.905793         2.466652
 C         2.195034         1.095366        -0.049886
 O         2.335277         2.440298        -0.286492
 H        -0.662672         0.199392         0.596002
 H        -0.487628        -1.089242        -0.698322
 H        -0.235608        -1.570664         0.957223
 H         2.456427        -1.978423        -0.514035
 H         1.763930        -1.010839        -1.731420
 H         4.120760         0.217286        -1.294504
 H         4.216984        -0.962566         1.320368
 H         4.388722         0.724827         1.425325
 H         0.782961         0.819001         2.616314
 H         1.503606         2.836147        -0.013703
