19
Iteration:  3859charge 0 multiplicity 1
 C        -0.091007        -0.298746         0.311849
 C         1.346569        -0.037119         0.049679
 C         2.142968        -0.503313        -1.139610
 C         3.290250         0.446605        -0.655189
 C         3.813783        -0.331137         0.652406
 C         2.422278         0.025144         1.245620
 O         1.934011         0.218209         2.553727
 C         2.145345         1.176472         0.211571
 O         1.951954         2.515412         0.182706
 H        -0.444291        -1.351890         0.255891
 H        -0.154381        -0.056506         1.418653
 H        -0.716596         0.433394        -0.164908
 H         2.453551        -1.552271        -1.289976
 H         1.751676        -0.038759        -2.057352
 H         4.003696         0.994501        -1.265231
 H         4.132195        -1.362656         0.679616
 H         4.618234         0.357957         1.210888
 H         1.891471        -0.713268         2.811752
 H         1.649721         2.782323         1.078714
