19
Iteration:   266charge 0 multiplicity 1
 C        -0.057872        -0.554447         0.482708
 C         1.346347        -0.184658         0.059214
 C         2.243662        -1.032285        -0.844923
 C         3.422872         0.051821        -0.563911
 C         3.694498        -0.187167         1.033098
 C         2.291499         0.408690         1.246086
 O         1.618890         1.018450         2.318545
 C         2.338308         1.114548        -0.032413
 O         2.154823         2.495989        -0.087763
 H        -0.655782         0.262307         0.867026
 H        -0.584442        -1.018755        -0.327984
 H         0.068210        -1.342379         1.199857
 H         2.451302        -2.094513        -0.597257
 H         1.968493        -1.079361        -1.983801
 H         4.220574         0.033583        -1.420778
 H         3.841631        -1.208114         1.341318
 H         4.497367         0.425930         1.574818
 H         0.852849         0.580742         2.634256
 H         1.814896         2.803740        -0.966372
