19
Iteration:  3853charge 0 multiplicity 1
 C        -0.089948        -0.312048         0.345055
 C         1.328343        -0.086718         0.097068
 C         2.186017        -0.511067        -1.144737
 C         3.284380         0.437373        -0.671667
 C         3.815088        -0.323122         0.608265
 C         2.364253         0.029538         1.218666
 O         1.923774         0.165718         2.588185
 C         2.178991         1.206251         0.208758
 O         1.984376         2.602101         0.160849
 H        -0.401126        -1.295849        -0.043089
 H        -0.249584        -0.223916         1.412546
 H        -0.816328         0.458537        -0.037488
 H         2.535147        -1.550309        -1.234217
 H         1.790296        -0.145245        -2.101857
 H         4.028235         0.930367        -1.316814
 H         4.173416        -1.385749         0.758135
 H         4.416448         0.333475         1.109926
 H         1.890567        -0.646577         3.149029
 H         1.502561         2.924488         0.959623
