19
Iteration:  1547charge 0 multiplicity 1
 C        -0.080053        -0.307280         0.472999
 C         1.437887        -0.331812         0.165975
 C         2.440131        -1.095428        -0.749636
 C         3.447289         0.127982        -0.490690
 C         3.828116         0.042856         1.076641
 C         2.304082         0.404250         1.192036
 O         1.799413         0.925027         2.350652
 C         2.175903         1.021091        -0.124675
 O         1.738197         2.300941        -0.250206
 H        -0.204891         0.453386         1.255915
 H        -0.536165        -0.043410        -0.431877
 H        -0.473778        -1.183374         0.932780
 H         2.633520        -2.163168        -0.533593
 H         1.915395        -1.027623        -1.742760
 H         4.387599         0.225489        -1.202480
 H         4.310844        -0.875269         1.355789
 H         4.337896         0.890984         1.386796
 H         1.038809         0.405418         2.655603
 H         1.548135         2.338471        -1.226058
