19
Iteration:  2972
 C        -0.194639        -0.534418         0.233417
 C         1.318488        -0.214103         0.120028
 C         2.271233        -0.909115        -0.901649
 C         3.351064         0.191737        -0.599155
 C         3.847218        -0.105765         0.835252
 C         2.381659         0.262577         1.289982
 O         1.951868         0.817908         2.549222
 C         2.128326         1.068045        -0.014456
 O         1.903191         2.471006         0.011540
 H        -0.267017        -1.518176        -0.289326
 H        -0.345310        -0.770178         1.365949
 H        -0.748195         0.272141        -0.258064
 H         2.342650        -2.039341        -1.042489
 H         1.702596        -0.773615        -1.867142
 H         4.039210         0.377547        -1.453990
 H         4.144639        -1.271962         1.049631
 H         4.538468         0.688152         0.980316
 H         2.494470         1.595648         2.723005
 H         1.379150         2.685297         0.837644
