19
Iteration:  1845
 C         0.002301        -0.398872         0.546896
 C         1.398983        -0.290178         0.215880
 C         2.233299        -0.975755        -0.797120
 C         3.433168         0.026101        -0.518880
 C         3.809343        -0.020629         0.958585
 C         2.324568         0.350795         1.209896
 O         1.857226         0.932468         2.426027
 C         2.212716         1.014938        -0.146597
 O         1.746080         2.346483        -0.236549
 H        -0.307225         0.555537         0.889810
 H        -0.528726        -0.754514        -0.361762
 H        -0.143766        -1.069035         1.389214
 H         2.518799        -2.002149        -0.534490
 H         2.106535        -0.971637        -1.871628
 H         4.072079         0.112073        -1.344246
 H         4.266626        -0.984401         1.295560
 H         4.336704         0.792890         1.292233
 H         1.484857         1.835875         2.355319
 H         1.764712         2.515302        -1.191468
