19
Iteration:   299charge 0 multiplicity 1
 C        -0.099063        -0.632140         0.353855
 C         1.328155        -0.196905         0.192018
 C         2.177024        -0.927518        -0.769202
 C         3.340971         0.099979        -0.534261
 C         3.683888        -0.077690         1.049697
 C         2.269318         0.333289         1.286902
 O         1.629703         0.903854         2.322373
 C         2.244356         1.145480        -0.000810
 O         2.389739         2.474594        -0.270861
 H        -0.842574         0.156856         0.377287
 H        -0.315070        -1.289011        -0.455791
 H        -0.207335        -1.173276         1.279228
 H         2.487526        -1.965345        -0.532550
 H         1.871051        -0.857723        -1.868214
 H         4.002934         0.127182        -1.499870
 H         4.117083        -1.027695         1.400800
 H         4.343083         0.783338         1.429182
 H         1.610076         0.420737         3.207311
 H         1.495681         2.821564        -0.534140
