19
Iteration:  3126charge 0 multiplicity 1
 C        -0.135613        -0.436371         0.344285
 C         1.282698        -0.159561         0.151104
 C         2.212732        -0.838814        -0.947075
 C         3.315998         0.220981        -0.562192
 C         3.781704        -0.135331         0.893464
 C         2.353925         0.249610         1.298432
 O         2.059600         0.464061         2.621717
 C         2.246212         1.207039        -0.021658
 O         1.765785         2.510227        -0.246571
 H        -0.784491         0.490050         0.609543
 H        -0.611536        -0.658732        -0.696148
 H        -0.553438        -1.139051         1.058189
 H         2.662046        -1.869909        -0.822837
 H         1.760550        -0.591238        -1.929828
 H         4.001767         0.713957        -1.259551
 H         4.229430        -1.136410         0.986789
 H         4.493868         0.552459         1.282273
 H         2.943995         0.635278         3.024570
 H         2.154009         3.089401         0.439768
