19
Iteration:  2878charge 0 multiplicity 1
 C        -0.128629        -0.234502         0.470569
 C         1.417027        -0.147959         0.157791
 C         2.323749        -0.803038        -0.867814
 C         3.360257         0.338574        -0.522844
 C         3.765739        -0.110916         0.931848
 C         2.375862         0.302387         1.354161
 O         1.929236         0.249500         2.669674
 C         2.165617         1.163262         0.003675
 O         1.727301         2.345006        -0.593648
 H        -0.610652         0.800014         0.363886
 H        -0.690040        -0.920339        -0.160966
 H        -0.265580        -0.474416         1.550666
 H         2.659225        -1.842635        -0.836928
 H         1.848350        -0.760300        -1.864451
 H         4.225846         0.748745        -1.039919
 H         4.115587        -1.023882         1.180215
 H         4.603709         0.656423         1.140571
 H         2.067094         1.136232         3.077384
 H         2.377875         3.024917        -0.390806
