19
Iteration:  4423charge 0 multiplicity 1
 C        -0.033863        -0.001871         0.384545
 C         1.441038         0.004448         0.001984
 C         2.066965        -0.260873        -1.405853
 C         3.339834         0.615285        -0.606368
 C         3.759323        -0.418820         0.558871
 C         2.422830        -0.036381         1.184536
 O         2.014382        -0.333280         2.432788
 C         2.272902         1.194479         0.344347
 O         1.734062         2.509279         0.532480
 H        -0.553053         0.960963         0.368542
 H        -0.496472        -0.644483        -0.366619
 H        -0.125423        -0.386626         1.417725
 H         2.234551        -1.305993        -1.499596
 H         1.637137         0.233331        -2.264140
 H         4.138822         1.250738        -1.020362
 H         4.063990        -1.463804         0.324856
 H         4.633187        -0.031707         1.029223
 H         1.132542        -0.788005         2.604947
 H         2.333495         3.151323         1.004278
