19
Iteration:   987charge 0 multiplicity 1
 C        -0.087621        -0.436576         0.352371
 C         1.409123        -0.326582         0.131400
 C         2.401791        -1.085948        -0.754345
 C         3.369674         0.108935        -0.518881
 C         3.755253        -0.023644         0.993185
 C         2.258822         0.322486         1.200643
 O         1.625644         0.905222         2.384924
 C         2.213977         1.047767        -0.118495
 O         2.069171         2.435287        -0.029108
 H        -0.357848         0.032996         1.273712
 H        -0.533312         0.171760        -0.427801
 H        -0.548047        -1.422500         0.253230
 H         2.567348        -2.177975        -0.430031
 H         2.011858        -0.986243        -1.818278
 H         4.281622         0.190097        -1.158073
 H         4.267586        -0.877608         1.343672
 H         4.245068         0.911186         1.273412
 H         1.099853         1.640663         2.093975
 H         2.196403         2.761590        -0.947558
