19
Iteration:  2161charge 0 multiplicity 1
 C        -0.090705        -0.478401         0.513763
 C         1.409123        -0.108037         0.224898
 C         2.233136        -1.036938        -0.642002
 C         3.328643         0.128093        -0.471649
 C         3.719794         0.024858         0.957167
 C         2.347301         0.582626         1.266719
 O         1.879454         0.554975         2.658932
 C         2.181254         1.158317        -0.184861
 O         1.923334         2.373023        -0.678508
 H        -0.706756         0.424392         0.569689
 H        -0.399971        -1.140449        -0.302781
 H        -0.075658        -1.044800         1.469484
 H         2.504041        -2.044040        -0.281209
 H         1.770527        -0.972567        -1.662065
 H         4.112467         0.194442        -1.194036
 H         4.256715        -0.778950         1.535292
 H         4.475580         0.810741         1.026852
 H         2.427711         1.049371         3.290105
 H         1.445495         2.380526        -1.542505
