19
Iteration:  1348
 C        -0.104674        -0.491638         0.185966
 C         1.408090        -0.257708         0.206697
 C         2.372853        -0.939172        -0.799369
 C         3.413200         0.221751        -0.486932
 C         3.752223        -0.052388         1.025601
 C         2.274354         0.273001         1.360938
 O         1.856986         0.911283         2.560079
 C         2.260928         1.085410         0.041489
 O         1.907952         2.323203        -0.431706
 H        -0.716103         0.436822         0.223840
 H        -0.326997        -0.977237        -0.753064
 H        -0.363385        -1.128725         1.063440
 H         2.567197        -2.018037        -0.442890
 H         1.824019        -0.790364        -1.744010
 H         4.144931         0.363661        -1.213780
 H         4.088921        -1.058118         1.314688
 H         4.379971         0.727489         1.499552
 H         0.917204         1.177773         2.411700
 H         0.934909         2.419361        -0.254229
