19
Iteration:  1353charge 0 multiplicity 1
 C        -0.127355        -0.475458         0.241593
 C         1.423938        -0.246969         0.184806
 C         2.376461        -0.943234        -0.734896
 C         3.402999         0.180836        -0.478511
 C         3.718782        -0.009163         1.016732
 C         2.273263         0.288409         1.304237
 O         1.860068         0.866235         2.531766
 C         2.243550         1.060471         0.007630
 O         1.929360         2.367123        -0.392549
 H        -0.730204         0.455601         0.171665
 H        -0.478278        -1.029306        -0.674286
 H        -0.413165        -1.187155         1.022819
 H         2.796082        -1.947958        -0.667434
 H         1.897626        -0.938188        -1.733836
 H         4.309882         0.406966        -1.132441
 H         4.170456        -0.975218         1.361922
 H         4.361438         0.725007         1.581082
 H         0.963371         1.218547         2.371645
 H         0.963277         2.255930        -0.453836
