19
Iteration:  3684
 C        -0.174775        -0.281663         0.153844
 C         1.350652        -0.073273         0.167735
 C         2.243208        -0.693159        -1.061668
 C         3.275290         0.323945        -0.648334
 C         3.799269        -0.193231         0.591553
 C         2.375396         0.122423         1.330906
 O         1.999865         0.283601         2.654003
 C         2.163586         1.139947         0.185199
 O         1.933554         2.527985         0.163149
 H        -0.363208        -0.967467         0.961089
 H        -0.731309         0.681737         0.493518
 H        -0.600566        -0.456388        -0.793151
 H         2.381845        -1.750438        -1.155831
 H         1.945182        -0.244947        -2.007328
 H         4.116379         0.825177        -1.237999
 H         4.391617        -1.077537         0.579553
 H         4.398485         0.682370         1.180616
 H         2.292356        -0.526513         3.130765
 H         1.048817         2.673122        -0.265772
