19
Iteration:   539charge 0 multiplicity 1
 C         0.041385        -0.336796         0.358505
 C         1.423954        -0.099940         0.013194
 C         2.295645        -1.056289        -0.716002
 C         3.432053         0.002365        -0.450949
 C         3.775103        -0.109408         0.991285
 C         2.358838         0.394461         1.201573
 O         1.504063         0.844845         2.349355
 C         2.235014         1.099653        -0.081958
 O         1.972074         2.420118        -0.215064
 H        -0.531640         0.503392         0.820629
 H        -0.428258        -0.625393        -0.609721
 H         0.057223        -1.175650         1.113022
 H         2.444365        -2.155348        -0.247571
 H         2.114219        -1.062672        -1.776197
 H         4.338784         0.170770        -1.014135
 H         3.922406        -1.095595         1.373393
 H         4.549963         0.609779         1.325506
 H         1.556478         0.033655         2.953248
 H         1.806691         2.813012         0.679676
