19
Iteration:   330charge 0 multiplicity 1
 C        -0.150004        -0.426285         0.286303
 C         1.324352        -0.189026        -0.035624
 C         2.376669        -0.942247        -0.819592
 C         3.369249         0.071187        -0.417494
 C         3.636823        -0.104925         1.114363
 C         2.278090         0.487799         1.310270
 O         1.798021         0.801050         2.585444
 C         2.115449         1.078908        -0.011113
 O         2.185026         2.378040        -0.465776
 H        -0.793336         0.485604         0.317665
 H        -0.670729        -1.076373        -0.434396
 H        -0.293540        -0.808081         1.309840
 H         2.719634        -1.878201        -0.445054
 H         2.363250        -0.894275        -1.860214
 H         4.123733         0.139600        -1.289691
 H         3.839899        -1.173909         1.413473
 H         4.413045         0.660630         1.507843
 H         1.943385         0.073657         3.174353
 H         1.423584         2.880848        -0.172075
