19
Iteration:  1369charge 0 multiplicity 1
 C        -0.106529        -0.457634         0.321194
 C         1.361977        -0.247905         0.119520
 C         2.448285        -1.037691        -0.765926
 C         3.433610         0.105851        -0.432110
 C         3.742712         0.010750         1.088824
 C         2.304935         0.469197         1.230593
 O         1.828870         0.724688         2.496379
 C         2.152413         1.062903        -0.131310
 O         1.890920         2.417841        -0.278477
 H        -0.589680         0.507507         0.433358
 H        -0.516810        -0.951857        -0.544216
 H        -0.312629        -0.984464         1.268254
 H         2.619852        -2.034483        -0.303323
 H         2.235582        -0.996957        -1.840310
 H         4.125932         0.371110        -1.180440
 H         4.090731        -0.924410         1.510675
 H         4.393709         0.830617         1.273843
 H         1.110007         1.353961         2.458415
 H         1.482146         2.652241        -1.157582
