19
Iteration:  3723charge 0 multiplicity 1
 C        -0.085598        -0.140438         0.268345
 C         1.339078        -0.139781         0.012427
 C         2.244485        -0.684239        -1.066629
 C         3.431580         0.232828        -0.683759
 C         3.785070        -0.219363         0.702383
 C         2.404712         0.162323         1.194762
 O         2.028257         0.378660         2.515029
 C         2.160924         1.137614         0.151247
 O         1.730346         2.456137         0.413538
 H        -0.397168         0.042867         1.305680
 H        -0.556839         0.580428        -0.341669
 H        -0.467587        -1.205125         0.178562
 H         2.455920        -1.785131        -1.224984
 H         1.853611        -0.285940        -2.031090
 H         4.147036         0.740319        -1.290570
 H         4.141842        -1.285865         0.624456
 H         4.500957         0.398863         1.109214
 H         1.770321        -0.507606         2.841939
 H         1.255695         2.730754        -0.380888
