19
Iteration:  1563charge 0 multiplicity 1
 C         0.024123        -0.384049         0.456772
 C         1.448054        -0.207677         0.116078
 C         2.407077        -1.027060        -0.751075
 C         3.428691         0.060767        -0.514591
 C         3.697088        -0.038042         0.984623
 C         2.342790         0.372497         1.306471
 O         1.762688         0.966342         2.449921
 C         2.210071         1.040977        -0.090866
 O         1.709381         2.323138        -0.350207
 H        -0.366923         0.491594         0.998083
 H        -0.775371        -0.522365        -0.379286
 H        -0.096181        -1.375920         1.041333
 H         2.832491        -1.953629        -0.314152
 H         2.232303        -1.226968        -1.797460
 H         4.036571         0.375307        -1.280190
 H         3.985079        -1.031126         1.451051
 H         4.554261         0.736837         1.236078
 H         1.401736         0.292838         3.030484
 H         2.139653         2.753408        -1.104305
