19
Iteration:  2752charge 0 multiplicity 1
 C        -0.077132        -0.639604         0.507211
 C         1.348474        -0.166885         0.068288
 C         2.269949        -0.910869        -0.876348
 C         3.341868         0.134244        -0.548424
 C         3.771048         0.001362         0.881344
 C         2.304693         0.360256         1.230627
 O         1.735240         0.745104         2.455975
 C         2.174249         1.120339        -0.038408
 O         2.029006         2.443078        -0.221061
 H        -0.182428        -1.714838         0.671457
 H        -0.266146        -0.046988         1.466374
 H        -0.715885        -0.142728        -0.249820
 H         2.527033        -1.986443        -0.673755
 H         1.920728        -0.717843        -1.897083
 H         4.172426         0.365576        -1.200412
 H         4.007115        -1.093220         1.214201
 H         4.516381         0.677778         1.208843
 H         2.538984         0.964286         2.939018
 H         1.848896         2.871993         0.630420
