19
Iteration:   558charge 0 multiplicity 1
 C        -0.105957        -0.270863         0.251833
 C         1.442276        -0.223013         0.080374
 C         2.366162        -1.026456        -0.732206
 C         3.481425         0.020678        -0.493558
 C         3.703174        -0.070509         1.091114
 C         2.297654         0.321549         1.260159
 O         1.744254         0.780167         2.455389
 C         2.328740         1.108994        -0.085956
 O         1.851250         2.431258        -0.297848
 H        -0.526750         0.731101         0.558362
 H        -0.544701        -0.508510        -0.725661
 H        -0.542856        -0.874498         1.048654
 H         2.706611        -1.984791        -0.248993
 H         1.969420        -1.178650        -1.749875
 H         4.241704         0.119365        -1.338777
 H         4.121575        -1.046119         1.500708
 H         4.300490         0.768917         1.447608
 H         0.862792         0.325027         2.522128
 H         1.925329         2.915127         0.566012
