19
Iteration:  1101
 C        -0.108851        -0.086862         0.277931
 C         1.417931        -0.200020         0.121847
 C         2.489400        -1.064749        -0.696440
 C         3.470110         0.148462        -0.462910
 C         3.806887         0.102145         1.128064
 C         2.298070         0.316708         1.237313
 O         1.592065         0.568950         2.486418
 C         2.241222         1.024889        -0.126359
 O         1.836336         2.283479        -0.473625
 H        -0.361895         0.972702         0.491533
 H        -0.743397        -0.324719        -0.578811
 H        -0.379020        -0.704447         1.109874
 H         2.593972        -2.128141        -0.222596
 H         2.255771        -1.117587        -1.731436
 H         4.290648         0.472313        -1.073523
 H         4.090559        -0.841929         1.568623
 H         4.393148         0.940766         1.460181
 H         2.249132         0.473083         3.176191
 H         1.570146         2.692976         0.394560
