19
Iteration:  2966
 C        -0.179255        -0.551836         0.309739
 C         1.313720        -0.250438         0.097278
 C         2.275673        -0.900236        -0.914386
 C         3.371286         0.216572        -0.647117
 C         3.800605        -0.118374         0.863619
 C         2.362561         0.265584         1.216779
 O         1.936362         0.817377         2.569821
 C         2.142219         1.068463         0.011664
 O         1.890866         2.463176        -0.012118
 H        -0.393728        -1.344153        -0.430793
 H        -0.436947        -0.800706         1.291387
 H        -0.665800         0.331427        -0.122591
 H         2.452184        -1.968538        -0.847113
 H         1.848520        -0.599275        -1.873572
 H         4.058764         0.319602        -1.474011
 H         4.156969        -1.075595         1.051213
 H         4.642975         0.566000         1.275171
 H         2.590763         1.555153         2.639237
 H         1.665861         2.742544         0.893082
