19
Iteration:   990charge 0 multiplicity 1
 C        -0.072387        -0.437875         0.356239
 C         1.384601        -0.326509         0.115931
 C         2.406290        -1.070798        -0.767086
 C         3.377186         0.080864        -0.518825
 C         3.703508        -0.010802         1.000548
 C         2.254589         0.334661         1.216224
 O         1.649493         0.897867         2.394562
 C         2.222164         1.051407        -0.096834
 O         2.061240         2.437531        -0.053068
 H        -0.337082         0.014787         1.334084
 H        -0.504252         0.108991        -0.482626
 H        -0.512291        -1.432143         0.284436
 H         2.581931        -2.145462        -0.523155
 H         2.074540        -0.969887        -1.761652
 H         4.378989         0.141086        -1.140700
 H         4.254326        -0.926327         1.276981
 H         4.261881         0.950604         1.233216
 H         1.039775         1.625132         2.142210
 H         2.277061         2.785411        -0.921326
