19
Iteration:  2620
 C        -0.024346        -0.142390         0.218859
 C         1.455304        -0.244674         0.137826
 C         2.390445        -0.988954        -0.758035
 C         3.349736         0.069284        -0.563886
 C         3.816042        -0.025623         0.901260
 C         2.325102         0.332966         1.304159
 O         1.873014         0.747476         2.558363
 C         2.187700         1.019351        -0.059208
 O         1.664335         2.284729        -0.109366
 H        -0.383470         0.893452         0.358285
 H        -0.514708        -0.590996        -0.713046
 H        -0.515064        -0.881728         0.950606
 H         2.757924        -2.035040        -0.531887
 H         1.925332        -1.067766        -1.745858
 H         4.074977         0.257414        -1.347179
 H         4.289089        -0.936594         1.160256
 H         4.512815         0.778949         1.039299
 H         2.407944         1.466655         2.906097
 H         1.042647         2.325891        -0.849383
