19
Iteration:   232
 C        -0.123018        -0.283973         0.400633
 C         1.362538        -0.214874         0.029059
 C         2.355259        -1.020565        -0.819258
 C         3.480691         0.143981        -0.435639
 C         3.696064        -0.169372         1.124306
 C         2.248671         0.359827         1.219431
 O         1.886232         0.850840         2.492847
 C         2.232734         1.045469        -0.120394
 O         1.902112         2.384912        -0.285969
 H        -0.484531         0.406329         1.160540
 H        -0.730752        -0.128210        -0.481642
 H        -0.375508        -1.251104         0.774050
 H         2.535045        -2.113188        -0.647090
 H         2.164841        -0.697963        -1.869588
 H         4.351490         0.167180        -1.170503
 H         3.675312        -1.227071         1.330894
 H         4.316734         0.391928         1.856515
 H         0.997950         0.575172         2.684992
 H         2.106573         2.756394        -1.155469
