19
Iteration:  1620charge 0 multiplicity 1
 C        -0.085104        -0.618596         0.440453
 C         1.361588        -0.231877         0.164044
 C         2.248083        -0.983227        -0.798585
 C         3.386674         0.153992        -0.514685
 C         3.691894         0.043812         1.016196
 C         2.269064         0.448948         1.313575
 O         1.870306         0.852564         2.649239
 C         2.155791         1.109741        -0.019766
 O         2.069268         2.371346        -0.647746
 H        -0.813407         0.188009         0.576856
 H        -0.328126        -1.394380        -0.346127
 H        -0.031412        -1.008281         1.509121
 H         2.646748        -2.012775        -0.818663
 H         1.887171        -0.800621        -1.803387
 H         3.858639         0.488738        -1.369678
 H         4.170102        -0.904869         1.458017
 H         4.164379         0.960331         1.436050
 H         2.174862         0.142746         3.293352
 H         1.108178         2.666197        -0.612768
