19
Iteration:  2618
 C        -0.031675        -0.150592         0.213387
 C         1.431800        -0.262722         0.136198
 C         2.386279        -0.990755        -0.768421
 C         3.360441         0.067684        -0.568375
 C         3.814234        -0.005745         0.898472
 C         2.337210         0.334220         1.313116
 O         1.876345         0.754616         2.575717
 C         2.197211         1.028742        -0.076951
 O         1.673860         2.287282        -0.106249
 H        -0.463344         0.856685         0.400020
 H        -0.514031        -0.531425        -0.716727
 H        -0.521969        -0.929444         0.879288
 H         2.799490        -2.006940        -0.508207
 H         1.880573        -1.083463        -1.741680
 H         4.124936         0.184289        -1.373979
 H         4.282598        -0.990329         1.176809
 H         4.425172         0.766922         1.068517
 H         2.410455         1.464981         2.949335
 H         1.022969         2.314711        -0.831340
