19
Iteration:  2576
 C        -0.106888        -0.496184         0.252784
 C         1.365298        -0.144518         0.216808
 C         2.235814        -0.918466        -0.750174
 C         3.305650         0.185252        -0.543290
 C         3.772066        -0.099109         0.941583
 C         2.391303         0.343683         1.304187
 O         1.914167         0.720250         2.565877
 C         2.148073         1.083868        -0.008593
 O         1.896088         2.431064        -0.299542
 H        -0.381375        -0.570774         1.307343
 H        -0.723456         0.255491        -0.342815
 H        -0.136471        -1.496697        -0.310218
 H         2.661330        -1.892303        -0.378557
 H         2.134819        -1.077960        -1.813826
 H         4.136624         0.173729        -1.241156
 H         4.117458        -1.075665         1.212626
 H         4.482496         0.681894         1.375043
 H         2.191011         1.635851         2.686361
 H         1.414507         2.465709        -1.136615
