19
Iteration:  1849
 C        -0.002770        -0.424717         0.522317
 C         1.377052        -0.291637         0.205953
 C         2.280643        -0.967890        -0.777036
 C         3.449490         0.026238        -0.528397
 C         3.772325        -0.063785         0.941875
 C         2.324222         0.360662         1.213656
 O         1.876458         0.950450         2.460423
 C         2.204421         1.004222        -0.167458
 O         1.749319         2.355974        -0.221853
 H        -0.378584         0.588243         0.792866
 H        -0.491308        -0.799575        -0.352130
 H        -0.303511        -1.032805         1.375156
 H         2.544447        -2.022317        -0.528477
 H         1.922447        -0.958447        -1.834248
 H         4.129933         0.117986        -1.398526
 H         4.239984        -0.920278         1.414402
 H         4.406801         0.958693         1.154979
 H         1.591576         1.871650         2.381405
 H         1.659302         2.545063        -1.177977
