19
Iteration:  4569
 C        -0.041069        -0.303467         0.383086
 C         1.312105        -0.013570         0.022364
 C         2.083949        -0.079499        -1.366456
 C         3.273650         0.614524        -0.601923
 C         3.711975        -0.452121         0.491279
 C         2.391829         0.019142         1.094493
 O         1.935633        -0.286454         2.288873
 C         2.216435         1.274513         0.355259
 O         2.092204         2.566869         0.770551
 H        -0.079795        -1.103120         1.148449
 H        -0.648641         0.544394         0.608107
 H        -0.438758        -0.602870        -0.572328
 H         2.226451        -1.064491        -1.680719
 H         1.676104         0.513732        -2.205968
 H         4.123719         1.052953        -1.150657
 H         3.795249        -1.468908         0.086419
 H         4.628908        -0.206773         0.960439
 H         1.001919        -0.470566         2.190621
 H         2.093718         2.561786         1.720405
