19
Iteration:  1597
 C        -0.096109        -0.654546         0.417735
 C         1.391583        -0.173189         0.257636
 C         2.298014        -0.880658        -0.755585
 C         3.365887         0.112149        -0.450547
 C         3.711966        -0.041311         1.074919
 C         2.360534         0.490886         1.300095
 O         1.859236         0.830011         2.514999
 C         2.167832         1.121384        -0.091421
 O         1.884645         2.367497        -0.667781
 H        -0.809982         0.153807         0.608986
 H        -0.266210        -1.230745        -0.550634
 H        -0.159483        -1.289352         1.355466
 H         2.503724        -1.942285        -0.493928
 H         1.931456        -0.810074        -1.763948
 H         3.971728         0.402698        -1.216768
 H         3.800296        -1.111729         1.429319
 H         4.644040         0.578816         1.281772
 H         2.146585         0.363485         3.299145
 H         2.135097         3.010834         0.015755
