19
Iteration:  3412charge 0 multiplicity 1
 C        -0.154794        -0.508452         0.254665
 C         1.357171        -0.181014         0.180634
 C         2.180361        -0.770838        -0.997812
 C         3.225046         0.317545        -0.655320
 C         3.723042        -0.111339         0.852220
 C         2.356309         0.296358         1.297668
 O         2.115997         0.408956         2.643966
 C         2.189352         1.159916         0.111629
 O         2.003999         2.609827        -0.081953
 H        -0.259531        -1.546357        -0.158558
 H        -0.519216        -0.631999         1.274613
 H        -0.747010         0.212675        -0.229577
 H         2.534370        -1.772729        -0.759182
 H         1.686331        -0.666011        -1.982061
 H         3.892718         0.575472        -1.479548
 H         4.135035        -1.074049         1.215955
 H         4.536215         0.570039         1.173608
 H         1.220326         0.004182         2.756464
 H         1.299337         2.580753        -0.742490
