19
Iteration:   213charge 0 multiplicity 1
 C        -0.123219        -0.201165         0.191975
 C         1.409086        -0.191641         0.185874
 C         2.339120        -0.958148        -0.830784
 C         3.403424         0.012493        -0.464891
 C         3.734046        -0.145673         1.042143
 C         2.332540         0.413573         1.372961
 O         1.865686         0.751265         2.600600
 C         2.268954         1.071775         0.035069
 O         1.847915         2.354298        -0.421176
 H        -0.448639         0.442086         1.033767
 H        -0.573167         0.196150        -0.710704
 H        -0.535753        -1.193777         0.461726
 H         2.645673        -1.925543        -0.421499
 H         1.902420        -0.918793        -1.915783
 H         4.313246         0.344351        -1.082650
 H         4.047640        -1.077068         1.446968
 H         4.459030         0.692505         1.094156
 H         1.013531         0.411731         2.786689
 H         1.596750         2.297513        -1.373441
