19
Iteration:  1211
 C        -0.093975        -0.609394         0.275677
 C         1.317532        -0.126221         0.049284
 C         2.446549        -0.932455        -0.775857
 C         3.404727         0.148700        -0.371705
 C         3.699950        -0.155025         1.086387
 C         2.328264         0.495356         1.333134
 O         1.775611         0.779890         2.572360
 C         2.193412         1.123133        -0.033069
 O         1.976527         2.374025        -0.550367
 H        -0.511298        -0.391350         1.270410
 H        -0.806825        -0.133875        -0.408365
 H        -0.087576        -1.654907         0.109833
 H         2.823405        -1.962003        -0.329026
 H         2.136448        -0.911557        -1.789776
 H         4.154521         0.502053        -0.992344
 H         3.809076        -1.178649         1.349156
 H         4.348109         0.396436         1.726449
 H         1.332751         1.639284         2.460334
 H         1.414674         2.876874         0.046140
