19
Iteration:  3608charge 0 multiplicity 1
 C        -0.019139        -0.382247         0.540402
 C         1.410342        -0.111125         0.037017
 C         2.143509        -0.698621        -1.119533
 C         3.335169         0.400760        -0.552271
 C         3.860713        -0.264911         0.803396
 C         2.409655         0.220446         1.220709
 O         1.834864         0.353263         2.469013
 C         2.199788         1.152677         0.030948
 O         1.899860         2.527153         0.161431
 H        -0.697574        -0.248666        -0.333727
 H        -0.128434        -1.414086         0.968001
 H        -0.359066         0.361983         1.179050
 H         2.408454        -1.750125        -1.331243
 H         1.630969        -0.234707        -1.989762
 H         4.063970         0.876479        -1.251727
 H         4.036406        -1.285563         0.669803
 H         4.777458         0.245988         1.252719
 H         1.121101        -0.301567         2.476854
 H         1.517143         2.830586        -0.667744
