19
Iteration:  3863charge 0 multiplicity 1
 C        -0.094503        -0.286358         0.320365
 C         1.356186        -0.030663         0.009947
 C         2.127303        -0.490114        -1.154279
 C         3.289335         0.438896        -0.624488
 C         3.812154        -0.299532         0.702623
 C         2.453538         0.055316         1.246178
 O         1.948187         0.238234         2.527137
 C         2.160665         1.138099         0.212990
 O         1.926603         2.470002         0.204695
 H        -0.435473        -1.313392         0.378957
 H        -0.180609         0.022016         1.357757
 H        -0.698542         0.380360        -0.329562
 H         2.330410        -1.542576        -1.322711
 H         1.679336        -0.045513        -2.041416
 H         3.964027         0.989574        -1.266552
 H         4.109139        -1.355053         0.534839
 H         4.607122         0.201787         1.156508
 H         1.835613        -0.728960         2.710475
 H         1.740634         2.718696         1.131785
