19
Iteration:  1180
 C         0.009149        -0.642828         0.182339
 C         1.459453        -0.263836         0.198723
 C         2.353283        -0.901187        -0.932467
 C         3.368531         0.109696        -0.395045
 C         3.611447        -0.201428         1.142660
 C         2.204832         0.428115         1.337042
 O         1.880395         1.003967         2.596490
 C         2.289542         1.129776         0.005072
 O         1.882239         2.398214        -0.506242
 H        -0.597804        -0.229292         1.012893
 H        -0.395190        -0.350679        -0.823602
 H        -0.170273        -1.730432         0.273798
 H         2.745998        -2.044544        -0.992142
 H         1.818202        -0.724315        -1.887903
 H         4.212170         0.446944        -0.958454
 H         3.706473        -1.256302         1.504155
 H         4.171682         0.458828         1.760277
 H         0.901353         1.076007         2.509622
 H         2.056689         3.000715         0.264899
