19
Iteration:  3726
 C        -0.087419        -0.149349         0.292229
 C         1.360005        -0.139803        -0.001619
 C         2.250172        -0.670035        -1.080781
 C         3.454397         0.226287        -0.668555
 C         3.788188        -0.229705         0.670681
 C         2.390297         0.136018         1.197037
 O         2.017293         0.381483         2.537316
 C         2.169866         1.155935         0.143998
 O         1.714490         2.458244         0.414640
 H        -0.350526         0.137975         1.335509
 H        -0.671430         0.524489        -0.448229
 H        -0.490374        -1.190183         0.212958
 H         2.418251        -1.741129        -1.205518
 H         1.821241        -0.320806        -2.030711
 H         4.181273         0.655995        -1.419944
 H         4.099095        -1.266295         0.636937
 H         4.591869         0.447384         1.160145
 H         1.703251        -0.458079         2.886573
 H         1.287623         2.789441        -0.401046
