19
Iteration:  3728
 C        -0.095013        -0.158350         0.305701
 C         1.379278        -0.135502        -0.004454
 C         2.252334        -0.659536        -1.097141
 C         3.460120         0.230668        -0.664149
 C         3.796021        -0.235827         0.658620
 C         2.382379         0.119942         1.200217
 O         2.010773         0.382921         2.549250
 C         2.177467         1.169347         0.137250
 O         1.705693         2.457217         0.413592
 H        -0.302122         0.215096         1.335084
 H        -0.727326         0.452016        -0.480497
 H        -0.504716        -1.155025         0.222203
 H         2.399885        -1.726375        -1.176249
 H         1.806058        -0.345761        -2.043513
 H         4.180916         0.571394        -1.479607
 H         4.085131        -1.280820         0.674947
 H         4.614799         0.442462         1.181599
 H         1.651894        -0.446744         2.934434
 H         1.306171         2.829421        -0.412617
