19
Iteration:  4118
 C        -0.175769        -0.160196         0.208139
 C         1.261664        -0.027335        -0.059114
 C         2.199630        -0.480986        -1.248270
 C         3.281044         0.387698        -0.698493
 C         3.811441        -0.285887         0.603794
 C         2.477046         0.080844         1.208556
 O         2.118713         0.002098         2.591151
 C         2.157377         1.172464         0.249501
 O         1.826488         2.549301         0.508055
 H        -0.417987        -0.882917         1.001420
 H        -0.694856         0.802994         0.274483
 H        -0.592882        -0.632561        -0.720079
 H         2.563057        -1.507409        -1.294613
 H         1.873139        -0.191736        -2.245183
 H         3.909675         0.995364        -1.327697
 H         4.152314        -1.399557         0.741784
 H         4.526235         0.302079         1.100952
 H         1.319959        -0.408878         2.955814
 H         2.294543         2.821074         1.344710
