19
Iteration:   214charge 0 multiplicity 1
 C        -0.131207        -0.210133         0.200352
 C         1.406374        -0.192771         0.178654
 C         2.345141        -0.956889        -0.833781
 C         3.411628         0.009854        -0.471802
 C         3.724662        -0.145351         1.051564
 C         2.332150         0.413447         1.362925
 O         1.867300         0.756859         2.598750
 C         2.274336         1.073560         0.031655
 O         1.846805         2.356909        -0.414770
 H        -0.423436         0.457450         1.046048
 H        -0.597506         0.204301        -0.703804
 H        -0.557775        -1.213523         0.488265
 H         2.653030        -1.927549        -0.437211
 H         1.912721        -0.923767        -1.898874
 H         4.287050         0.356667        -1.090771
 H         4.049083        -1.110478         1.460203
 H         4.451811         0.684417         1.116866
 H         1.007806         0.419222         2.782408
 H         1.640270         2.305366        -1.363891
