19
Iteration:  1558charge 0 multiplicity 1
 C         0.007697        -0.342643         0.467679
 C         1.428399        -0.238602         0.139130
 C         2.434869        -1.050934        -0.734910
 C         3.424395         0.061700        -0.536512
 C         3.732491        -0.017952         1.013985
 C         2.334171         0.370311         1.267660
 O         1.777778         0.965082         2.413225
 C         2.194411         1.008396        -0.090067
 O         1.710629         2.319669        -0.309676
 H        -0.345932         0.512089         1.065384
 H        -0.712643        -0.341374        -0.309521
 H        -0.144735        -1.293890         0.921811
 H         2.898875        -2.008453        -0.437945
 H         2.178627        -1.096949        -1.831676
 H         4.218668         0.376492        -1.351187
 H         4.071953        -0.908415         1.525774
 H         4.332534         0.778422         1.352568
 H         1.237017         0.243900         2.844096
 H         1.967329         2.676605        -1.191545
