19
Iteration:  1410charge 0 multiplicity 1
 C        -0.009230        -0.394964         0.526192
 C         1.440893        -0.177797         0.142846
 C         2.380697        -0.965824        -0.695515
 C         3.402535         0.162083        -0.471826
 C         3.857016        -0.016303         1.022469
 C         2.329687         0.361819         1.236930
 O         1.543652         0.628717         2.396461
 C         2.232124         1.132385        -0.119575
 O         1.848472         2.354571        -0.514183
 H        -0.507850         0.387509         1.070298
 H        -0.560985        -0.731088        -0.372530
 H        -0.116044        -1.136974         1.341561
 H         2.753784        -1.899715        -0.201053
 H         2.067254        -1.011549        -1.746610
 H         4.219030         0.362033        -1.187374
 H         4.041994        -1.076574         1.324301
 H         4.494512         0.822522         1.360875
 H         1.978974         1.371422         2.878840
 H         1.938391         2.928694         0.266703
