19
Iteration:  4006
 C        -0.022725        -0.276706         0.461176
 C         1.369232         0.034872        -0.037567
 C         2.203548        -0.411607        -1.267896
 C         3.293351         0.412632        -0.677775
 C         3.772283        -0.379055         0.650722
 C         2.464862         0.056897         1.246699
 O         1.835367        -0.038881         2.562634
 C         2.176570         1.240775         0.218239
 O         1.838548         2.650552         0.240971
 H        -0.706033         0.293520        -0.166187
 H        -0.331484        -1.311214         0.473197
 H        -0.054751         0.085375         1.520518
 H         2.472040        -1.464902        -1.211275
 H         1.809550        -0.186722        -2.263183
 H         4.178621         0.865494        -1.252073
 H         3.937480        -1.494443         0.692068
 H         4.658258         0.078260         1.077228
 H         2.037897        -0.975833         2.814347
 H         2.322105         3.157024         0.912945
