19
Iteration:  2284charge 0 multiplicity 1
 C        -0.052615        -0.548415         0.406708
 C         1.373967        -0.245121         0.193101
 C         2.310685        -1.092914        -0.722333
 C         3.390374         0.084508        -0.514066
 C         3.751673        -0.011990         0.965437
 C         2.258914         0.366470         1.272386
 O         1.946035         1.050390         2.439023
 C         2.111106         1.011401        -0.046451
 O         1.885635         2.371598        -0.305970
 H        -0.206735        -0.420084         1.501668
 H        -0.506710         0.298602        -0.183494
 H        -0.328578        -1.505654         0.065283
 H         2.797718        -2.042616        -0.420497
 H         1.894806        -1.168000        -1.778208
 H         4.078767         0.078382        -1.394538
 H         4.148566        -1.026616         1.502452
 H         4.442014         0.789304         1.219324
 H         1.510680         1.900355         2.370534
 H         1.335795         2.553369        -1.094564
