19
Iteration:  2232charge 0 multiplicity 1
 C         0.081087        -0.243616         0.438605
 C         1.501122        -0.200402         0.274537
 C         2.280362        -1.075606        -0.756470
 C         3.412043        -0.032335        -0.510691
 C         3.776782        -0.083287         1.004171
 C         2.430623         0.446948         1.278484
 O         1.753591         0.892645         2.399790
 C         2.277358         1.039241        -0.100540
 O         1.578228         2.285386        -0.349607
 H        -0.084929         0.304123         1.348305
 H        -0.425226         0.233654        -0.391325
 H        -0.188428        -1.279350         0.552947
 H         2.517848        -2.114258        -0.489074
 H         1.829825        -0.985040        -1.724067
 H         4.262618         0.213885        -1.169041
 H         4.459521        -0.954992         1.172887
 H         4.428435         0.678774         1.297492
 H         1.991037         1.771608         2.733275
 H         0.978280         2.041114        -1.101642
