19
Iteration:  1430
 C        -0.072429        -0.465450         0.485855
 C         1.484339        -0.284774         0.211565
 C         2.394115        -0.948005        -0.827464
 C         3.429607         0.184894        -0.471047
 C         3.754178        -0.046421         1.043980
 C         2.359458         0.484889         1.311946
 O         1.636302         0.736686         2.460790
 C         2.164670         1.094296        -0.020738
 O         1.941799         2.342211        -0.579529
 H        -0.485134         0.383571         1.118549
 H        -0.600731        -0.493944        -0.518361
 H        -0.386302        -1.370142         1.087191
 H         2.501249        -2.044328        -0.773466
 H         1.966642        -0.670604        -1.820924
 H         4.139911         0.647406        -1.237027
 H         4.000425        -1.115259         1.413735
 H         4.505401         0.795131         1.448451
 H         2.138016         0.836020         3.258562
 H         1.004850         2.507562        -0.328687
