19
Iteration:  3173
 C        -0.095600        -0.281462         0.436605
 C         1.370218        -0.194754         0.205861
 C         2.285969        -0.922224        -1.030389
 C         3.343586         0.256075        -0.721381
 C         3.895255        -0.175094         0.759319
 C         2.431073         0.177157         1.253968
 O         1.821902         0.636071         2.441307
 C         2.193983         1.106995         0.051786
 O         1.834935         2.453381         0.108040
 H        -0.880178         0.533209         0.182949
 H        -0.367350        -1.153198        -0.150296
 H        -0.316532        -0.513321         1.502318
 H         2.391976        -1.993152        -0.750337
 H         1.767887        -0.703630        -1.966846
 H         3.920853         0.518348        -1.604743
 H         4.233550        -1.188896         1.086580
 H         4.587276         0.464220         1.163736
 H         2.390656         1.359900         2.783843
 H         0.872336         2.612783         0.070659
