19
Iteration:  2413charge 0 multiplicity 1
 C        -0.045615        -0.199380         0.258881
 C         1.454439        -0.252902         0.272423
 C         2.413259        -1.027219        -0.691092
 C         3.359670         0.087889        -0.503134
 C         3.787467        -0.076914         0.967179
 C         2.347200         0.419186         1.290349
 O         1.951831         0.816782         2.578800
 C         2.236713         1.069646        -0.056700
 O         1.646769         2.244218        -0.389106
 H        -0.504755         0.717628        -0.246846
 H        -0.505205        -1.105571        -0.244126
 H        -0.519697        -0.267971         1.251937
 H         2.652194        -2.112514        -0.670721
 H         1.906082        -0.895159        -1.670666
 H         4.142182         0.260854        -1.252862
 H         4.006506        -1.115309         1.039961
 H         4.607219         0.747970         1.363455
 H         1.279489         1.536910         2.525898
 H         0.927867         1.982191        -1.006029
