19
Iteration:  3314charge 0 multiplicity 1
 C        -0.074973        -0.141028         0.518269
 C         1.424281        -0.157508         0.115531
 C         2.272735        -0.833504        -0.983623
 C         3.319415         0.293088        -0.580859
 C         3.899062        -0.161344         0.761606
 C         2.392407         0.206496         1.241738
 O         1.834386         0.433798         2.485018
 C         2.181911         1.116802         0.045157
 O         1.732076         2.415490        -0.146324
 H        -0.711851        -0.933133        -0.009467
 H        -0.135911        -0.507710         1.536794
 H        -0.416386         0.884441         0.417204
 H         2.622290        -1.842775        -0.837464
 H         1.957467        -0.484881        -1.964408
 H         4.062144         0.610286        -1.321974
 H         4.321933        -1.245882         0.986348
 H         4.622596         0.452043         1.238866
 H         1.996762        -0.388136         3.025238
 H         1.830929         2.958425         0.659494
