19
Iteration:  2383
 C        -0.017106        -0.291908         0.511893
 C         1.417187        -0.164677         0.173452
 C         2.331073        -0.983071        -0.810056
 C         3.362351         0.046613        -0.461459
 C         3.854543        -0.087483         1.097975
 C         2.398742         0.475112         1.277034
 O         1.847573         0.763659         2.533658
 C         2.246076         1.102075        -0.031174
 O         1.715256         2.289127        -0.551327
 H        -0.473831         0.705895         0.810719
 H        -0.509504        -0.691052        -0.437203
 H        -0.033691        -1.019408         1.296481
 H         2.524266        -2.088337        -0.792232
 H         1.861764        -0.855133        -1.845132
 H         4.133739         0.297062        -1.161917
 H         4.040553        -1.141303         1.225256
 H         4.562805         0.593978         1.394501
 H         0.952486         1.142479         2.480310
 H         1.027646         2.025387        -1.207940
