19
Iteration:  4750
 C        -0.185834        -0.437934         0.141856
 C         1.278986         0.140965         0.017078
 C         2.071644        -0.048159        -1.435775
 C         3.275320         0.620013        -0.603181
 C         3.662991        -0.386080         0.469972
 C         2.318182        -0.118676         1.063780
 O         1.979064        -0.340873         2.372079
 C         2.265869         1.299650         0.430658
 O         2.238839         2.658736         0.932994
 H        -0.262896        -1.207301        -0.627528
 H        -0.396952        -0.963570         1.120858
 H        -0.995413         0.277362        -0.096389
 H         1.938721        -1.109368        -1.675561
 H         1.311082         0.576591        -1.892375
 H         4.128946         1.122710        -1.175424
 H         3.859281        -1.417990         0.152849
 H         4.418275         0.092748         1.096263
 H         1.414968        -1.111053         2.325895
 H         3.064509         2.779386         1.476836
