19
Iteration:  3606charge 0 multiplicity 1
 C        -0.015231        -0.380440         0.517833
 C         1.380369        -0.130149         0.065512
 C         2.149292        -0.698418        -1.127359
 C         3.329781         0.384904        -0.556754
 C         3.864706        -0.251440         0.806238
 C         2.419909         0.231057         1.218875
 O         1.839657         0.356218         2.461220
 C         2.191528         1.148702         0.022192
 O         1.903181         2.527018         0.172140
 H        -0.665195        -0.125673        -0.256360
 H        -0.134843        -1.421390         0.913672
 H        -0.349228         0.337671         1.203689
 H         2.412816        -1.730404        -1.310867
 H         1.715727        -0.245605        -2.019039
 H         4.049143         0.860649        -1.204715
 H         4.015568        -1.295471         0.698893
 H         4.818215         0.275680         1.227313
 H         1.115055        -0.317104         2.498395
 H         1.498912         2.849304        -0.656685
