19
Iteration:  2036charge 0 multiplicity 1
 C        -0.140918        -0.517423         0.269323
 C         1.334515        -0.363193         0.271363
 C         2.320619        -1.133066        -0.612157
 C         3.250842         0.105121        -0.636839
 C         3.781553         0.032190         0.950570
 C         2.406264         0.455669         1.318152
 O         2.028508         1.009191         2.513212
 C         2.042364         1.018855        -0.032428
 O         1.883002         2.390838        -0.324797
 H        -0.785905        -0.059476         1.074225
 H        -0.413028        -0.107547        -0.749691
 H        -0.292632        -1.625757         0.166677
 H         2.758876        -2.109640        -0.278549
 H         1.985000        -1.357164        -1.643404
 H         4.099507         0.293099        -1.389458
 H         4.173938        -0.871839         1.276720
 H         4.512847         0.913589         1.268494
 H         2.370989         1.924067         2.596564
 H         1.263252         2.398604        -1.093084
