19
Iteration:  4288charge 0 multiplicity 1
 C        -0.186512        -0.182220         0.292326
 C         1.297934         0.041880        -0.071330
 C         2.196782        -0.327005        -1.310688
 C         3.353474         0.495096        -0.682196
 C         3.733302        -0.441016         0.539634
 C         2.390661         0.045173         1.088468
 O         2.104274         0.022627         2.478233
 C         2.284448         1.197105         0.265552
 O         1.826332         2.383451         0.687675
 H        -0.624287        -1.186584        -0.002779
 H        -0.227443        -0.121730         1.405390
 H        -0.940973         0.519189        -0.188499
 H         2.505473        -1.333112        -1.577277
 H         1.544890        -0.009571        -2.139005
 H         4.146272         1.198458        -1.097435
 H         4.136409        -1.461887         0.397593
 H         4.604198         0.030985         1.242078
 H         1.234348         0.349941         2.781479
 H         2.098949         2.522517         1.647471
