19
Iteration:   513charge 0 multiplicity 1
 C        -0.136787        -0.554413         0.461125
 C         1.349968        -0.211601         0.080822
 C         2.404038        -0.960652        -0.872050
 C         3.400392         0.116502        -0.526420
 C         3.688215        -0.177854         1.093970
 C         2.286621         0.352272         1.232218
 O         1.519487         0.869996         2.306402
 C         2.260236         1.127877        -0.005726
 O         2.157458         2.461567        -0.294628
 H        -0.519268         0.166017         1.198918
 H        -0.788535        -0.624547        -0.410499
 H        -0.064374        -1.450427         1.066935
 H         2.793576        -1.972115        -0.647267
 H         2.091696        -0.859474        -1.953140
 H         4.340777         0.507715        -1.007169
 H         3.851218        -1.196434         1.550468
 H         4.366721         0.574092         1.465989
 H         2.141429         1.181677         3.021023
 H         2.115231         3.038348         0.510301
