19
Iteration:  4511
 C        -0.244682        -0.282717         0.073111
 C         1.242191        -0.045266        -0.006123
 C         2.119657        -0.243902        -1.328050
 C         3.241327         0.656495        -0.664643
 C         3.771300        -0.379241         0.547361
 C         2.321496        -0.031030         1.080285
 O         2.060915        -0.130768         2.450654
 C         2.221095         1.191450         0.344069
 O         2.149521         2.580065         0.848302
 H        -0.764738        -1.006320        -0.551203
 H        -0.478736        -0.712197         1.060942
 H        -0.749619         0.666750        -0.141649
 H         2.247893        -1.283706        -1.614123
 H         1.814681         0.317345        -2.210988
 H         3.762596         1.390871        -1.383459
 H         3.974188        -1.398728         0.106173
 H         4.508743         0.031699         1.226571
 H         2.266756        -0.983510         2.933494
 H         2.193333         2.361763         1.834076
