19
Iteration:  1490
 C        -0.078395        -0.459036         0.191247
 C         1.419235        -0.219963         0.244821
 C         2.418829        -1.025749        -0.637494
 C         3.396242         0.126576        -0.493801
 C         3.764666        -0.054783         1.055406
 C         2.393390         0.485505         1.308396
 O         1.917206         0.887385         2.584816
 C         2.087395         1.082586        -0.065698
 O         1.688601         2.337216        -0.553209
 H        -0.682424        -0.107113         0.996025
 H        -0.500648         0.014481        -0.664887
 H        -0.220797        -1.501949         0.005838
 H         2.651474        -2.067430        -0.341550
 H         1.955701        -1.075236        -1.628298
 H         4.097917         0.324023        -1.257726
 H         3.984301        -1.066579         1.370295
 H         4.498733         0.555727         1.448371
 H         1.637734         0.078040         3.057469
 H         2.264013         3.013043        -0.160407
