19
Iteration:  4785
 C        -0.169458        -0.308964         0.061761
 C         1.244925         0.167340        -0.022022
 C         1.995859        -0.003096        -1.368136
 C         3.232049         0.673870        -0.601619
 C         3.680717        -0.348338         0.430382
 C         2.394254        -0.056862         1.158421
 O         2.027419        -0.394255         2.482112
 C         2.209435         1.198453         0.457351
 O         2.273793         2.524343         0.819945
 H        -0.006848        -1.390143         0.231817
 H        -0.845581         0.113897         0.838567
 H        -0.739879        -0.245584        -0.884883
 H         2.246309        -1.027901        -1.908841
 H         1.393218         0.535520        -2.119777
 H         4.031641         1.295939        -0.960195
 H         3.939170        -1.344020        -0.062807
 H         4.551793        -0.132192         0.978888
 H         1.707988        -1.289084         2.480997
 H         2.064491         2.493420         1.781189
