19
Iteration:  3162
 C        -0.141687        -0.360171         0.384886
 C         1.444304        -0.187813         0.143301
 C         2.225540        -0.884058        -0.958601
 C         3.267383         0.179422        -0.682774
 C         3.851968        -0.150605         0.757114
 C         2.448337         0.297496         1.236509
 O         1.848749         0.638927         2.509391
 C         2.227938         1.095807         0.039463
 O         1.851707         2.460446         0.073908
 H        -0.496836         0.685872         0.094130
 H        -0.525711        -1.055651        -0.356825
 H        -0.409303        -0.676142         1.404020
 H         2.625891        -1.938658        -0.872081
 H         1.762304        -0.856070        -1.956136
 H         3.946908         0.668259        -1.369507
 H         4.146265        -1.228147         0.796009
 H         4.548550         0.557163         1.023864
 H         2.572871         1.028030         3.064718
 H         0.937109         2.315461         0.378194
