19
Iteration:  2084charge 0 multiplicity 1
 C        -0.066165        -0.441417         0.523055
 C         1.395911        -0.272386         0.162357
 C         2.319417        -1.057909        -0.783049
 C         3.430091        -0.032164        -0.501271
 C         3.773132        -0.026905         0.964412
 C         2.360609         0.345990         1.241051
 O         1.921788         1.047590         2.289359
 C         2.209836         1.046981        -0.136412
 O         1.728687         2.365316        -0.115810
 H        -0.466753         0.513987         0.825024
 H        -0.592575        -0.804341        -0.349221
 H        -0.201429        -1.146137         1.395655
 H         2.646247        -2.044914        -0.395111
 H         1.928048        -1.253703        -1.810200
 H         4.102321         0.387569        -1.185117
 H         4.142213        -1.102345         1.401661
 H         4.543274         0.734488         1.173317
 H         1.407646         1.854961         2.029074
 H         1.212139         2.482483        -0.931343
