19
Iteration:   388charge 0 multiplicity 1
 C        -0.011743         0.080279         0.199637
 C         1.493979        -0.208630         0.180943
 C         2.370802        -1.027009        -0.794423
 C         3.471745         0.120146        -0.399147
 C         3.758319        -0.128185         1.107958
 C         2.345709         0.395378         1.336264
 O         1.727621         0.689996         2.567528
 C         2.309443         1.059023         0.005211
 O         1.637248         2.118139        -0.471950
 H        -0.178973         1.082677         0.544962
 H        -0.375040         0.001313        -0.806835
 H        -0.559033        -0.647063         0.778580
 H         2.541235        -2.055063        -0.572511
 H         2.063655        -1.009534        -1.887003
 H         4.261312         0.434544        -1.102711
 H         4.218843        -1.046448         1.485581
 H         4.442512         0.710923         1.494029
 H         0.825049         0.280684         2.343517
 H         2.256509         2.785171        -0.867877
