19
Iteration:  1855charge 0 multiplicity 1
 C        -0.063209        -0.448385         0.487293
 C         1.399994        -0.267563         0.182714
 C         2.357376        -1.014005        -0.754583
 C         3.433671         0.028222        -0.580929
 C         3.743965        -0.063946         0.940859
 C         2.335437         0.402218         1.239386
 O         1.911642         0.957361         2.494720
 C         2.168673         1.011604        -0.156863
 O         1.769467         2.356601        -0.211308
 H        -0.535155         0.534535         0.581909
 H        -0.617798        -0.869371        -0.409722
 H        -0.390195        -1.058612         1.351941
 H         2.594358        -2.063068        -0.552402
 H         1.709191        -0.900660        -1.644981
 H         4.229086         0.175078        -1.297811
 H         4.197318        -0.897779         1.535392
 H         4.350424         0.733899         0.993178
 H         1.801720         1.898257         2.279330
 H         1.455096         2.616102        -1.089229
