19
Iteration:   448
 C        -0.085279        -0.426054         0.077411
 C         1.368625        -0.125649         0.086636
 C         2.311443        -0.967494        -0.688834
 C         3.400560         0.129653        -0.412165
 C         3.752101        -0.166434         1.105486
 C         2.348422         0.459506         1.351557
 O         1.796182         0.713259         2.677721
 C         2.198184         1.114700        -0.031046
 O         2.042677         2.413157        -0.473748
 H        -0.609363        -0.024530         0.998383
 H        -0.735260        -0.061011        -0.771932
 H        -0.228109        -1.533850         0.126943
 H         2.426425        -2.081629        -0.272794
 H         1.804654        -0.940184        -1.711514
 H         4.062671         0.311286        -1.296372
 H         3.764693        -1.219321         1.444383
 H         4.567174         0.433721         1.443651
 H         1.024428         1.293519         2.410112
 H         1.188057         2.557432        -0.925291
