19
Iteration:   465
 C        -0.154001        -0.614438         0.187176
 C         1.306258        -0.107958         0.038148
 C         2.293548        -0.961743        -0.856029
 C         3.343782         0.041453        -0.388486
 C         3.671376        -0.154405         1.066583
 C         2.347319         0.543569         1.442829
 O         1.762306         0.772459         2.589244
 C         2.271489         1.136095         0.076707
 O         2.148243         2.456887        -0.490074
 H        -0.767265        -0.379667         1.034950
 H        -0.461152        -0.224597        -0.762946
 H        -0.050607        -1.691281         0.238140
 H         2.503108        -1.880130        -0.490584
 H         2.180692        -1.027698        -1.937096
 H         4.214964         0.301714        -0.926920
 H         3.929851        -1.202136         1.317802
 H         4.618569         0.457533         1.294269
 H         1.236294         1.614927         2.577545
 H         1.276360         2.749375        -0.164080
