19
Iteration:  2237
 C         0.048444        -0.237041         0.445007
 C         1.531916        -0.209333         0.240275
 C         2.336676        -1.048449        -0.703698
 C         3.411381        -0.060427        -0.536884
 C         3.812374        -0.095585         1.010788
 C         2.410888         0.409433         1.236383
 O         1.737951         0.944509         2.385844
 C         2.266004         1.031253        -0.083224
 O         1.558745         2.297152        -0.309344
 H        -0.140905         0.179007         1.474563
 H        -0.531636         0.286551        -0.353563
 H        -0.189844        -1.366873         0.520044
 H         2.474746        -2.147231        -0.576879
 H         1.997213        -0.867819        -1.772958
 H         4.190171         0.145016        -1.254759
 H         4.130605        -1.166061         1.098784
 H         4.593609         0.752177         1.376584
 H         2.100405         1.837726         2.560592
 H         1.007347         1.974954        -1.028617
