19
Iteration:  3935
 C        -0.223356        -0.160392         0.194566
 C         1.331921        -0.072441        -0.020388
 C         2.161935        -0.501310        -1.118468
 C         3.312620         0.409342        -0.711234
 C         3.853475        -0.314814         0.630451
 C         2.500486         0.181580         1.300509
 O         2.090787         0.064401         2.615429
 C         2.175211         1.158186         0.200255
 O         1.783491         2.487605         0.340907
 H        -0.550509         0.417426         1.090626
 H        -0.682927         0.422387        -0.648970
 H        -0.625079        -1.175947         0.154178
 H         2.501418        -1.576230        -1.067252
 H         1.727752        -0.303762        -2.128781
 H         4.029323         0.782564        -1.409659
 H         4.157784        -1.371555         0.592318
 H         4.795682         0.202304         1.119007
 H         1.292434        -0.503555         2.746322
 H         2.223157         2.833760         1.130464
