19
Iteration:   831charge 0 multiplicity 1
 C        -0.013166        -0.007025         0.408776
 C         1.424051        -0.101158         0.069398
 C         2.411697        -1.072998        -0.603637
 C         3.461253         0.157406        -0.403631
 C         3.757914         0.117924         1.011030
 C         2.250576         0.228530         1.350798
 O         1.669769         0.252982         2.589641
 C         2.186250         1.128168        -0.088728
 O         1.840422         2.365978        -0.749750
 H        -0.190316         1.068334         0.507431
 H        -0.745402        -0.464153        -0.247284
 H        -0.205377        -0.344764         1.407758
 H         2.821277        -2.007736        -0.099747
 H         2.352225        -1.383589        -1.747549
 H         4.195766         0.120442        -1.111543
 H         4.237199        -0.736232         1.453881
 H         4.209116         1.002718         1.323470
 H         1.666157         1.215737         2.902689
 H         1.943038         3.164580        -0.202460
