19
Iteration:  4433charge 0 multiplicity 1
 C        -0.058422         0.003741         0.368145
 C         1.373154        -0.057704        -0.053301
 C         2.171081        -0.245675        -1.326834
 C         3.328002         0.593641        -0.665610
 C         3.761761        -0.401352         0.545609
 C         2.396106        -0.008580         1.149620
 O         2.031476        -0.283412         2.503557
 C         2.300113         1.253986         0.286862
 O         1.724014         2.440889         0.630417
 H        -0.468396         0.926527         0.020468
 H        -0.672584        -0.792406        -0.050934
 H        -0.347992        -0.171371         1.419290
 H         2.308529        -1.220970        -1.724254
 H         1.699428         0.295001        -2.117300
 H         4.160313         1.044921        -1.165998
 H         3.820277        -1.417583         0.113701
 H         4.662538        -0.047434         1.049930
 H         1.210531        -0.828578         2.320827
 H         2.481301         2.983637         0.932824
