19
Iteration:   932
 C        -0.071708        -0.438680         0.228551
 C         1.417766        -0.243729         0.091180
 C         2.361494        -1.048721        -0.802927
 C         3.432619         0.023544        -0.526229
 C         3.713621        -0.067200         1.207548
 C         2.319753         0.387860         1.236720
 O         1.734940         0.940843         2.434054
 C         2.182196         1.030175        -0.113479
 O         1.876391         2.449740        -0.253847
 H        -0.531727        -0.203392         1.156153
 H        -0.564054         0.142758        -0.535761
 H        -0.257737        -1.502131         0.037189
 H         2.494602        -2.146860        -0.544517
 H         1.920910        -0.950756        -1.858172
 H         4.397334         0.167450        -1.054698
 H         3.916648        -1.074412         1.479486
 H         4.525798         0.588182         1.513322
 H         2.471952         1.328090         2.897860
 H         1.768218         2.661553         0.730030
