19
Iteration:  2454
 C        -0.154853        -0.331431         0.127225
 C         1.344487        -0.281044         0.168329
 C         2.322321        -1.028744        -0.678192
 C         3.422503         0.103911        -0.511132
 C         3.816656        -0.007693         0.898880
 C         2.296804         0.395988         1.337921
 O         1.981526         0.841661         2.594406
 C         2.193436         1.015633        -0.026694
 O         1.732506         2.302759        -0.244525
 H        -0.602432        -0.525853        -0.821482
 H        -0.163816        -1.213276         0.746913
 H        -0.515095         0.515908         0.778897
 H         2.572837        -2.054221        -0.337762
 H         2.223568        -1.118891        -1.750382
 H         4.034235         0.212716        -1.448974
 H         4.332395        -0.904810         1.360438
 H         4.261241         1.006463         1.119508
 H         2.276586         1.773551         2.688120
 H         1.455275         2.564633        -1.147760
