19
Iteration:   353
 C        -0.063491        -0.219168         0.235213
 C         1.454387        -0.114357         0.122570
 C         2.285450        -1.030976        -0.791944
 C         3.486153         0.151605        -0.362162
 C         3.712363        -0.237381         1.153803
 C         2.329073         0.449322         1.323191
 O         1.751933         0.723016         2.600123
 C         2.268711         1.106139        -0.054416
 O         1.851654         2.314603        -0.623386
 H        -0.564413         0.763954         0.202541
 H        -0.433985        -0.686943        -0.665214
 H        -0.496480        -0.677242         1.127065
 H         2.492596        -2.034625        -0.538706
 H         1.988366        -0.873048        -1.796313
 H         4.332209         0.611678        -1.024534
 H         3.933788        -1.289010         1.428369
 H         4.503210         0.538842         1.451534
 H         1.578405        -0.122403         3.096025
 H         1.538121         2.877556         0.136786
