19
Iteration:  4550
 C        -0.127335        -0.385166         0.302935
 C         1.334457         0.073720        -0.076632
 C         2.065048        -0.112778        -1.377734
 C         3.295519         0.546567        -0.758857
 C         3.739992        -0.370006         0.500031
 C         2.384953        -0.070044         1.116798
 O         1.884385        -0.209366         2.460768
 C         2.300230         1.280407         0.325315
 O         2.141902         2.579005         0.836199
 H        -0.063076        -1.471824         0.544014
 H        -0.477153         0.244440         1.149433
 H        -0.901472        -0.277488        -0.487861
 H         2.057938        -1.157108        -1.861338
 H         1.600765         0.578405        -2.102198
 H         3.940069         1.171377        -1.279099
 H         4.019188        -1.393337         0.304306
 H         4.552201         0.090091         1.146628
 H         1.144940        -0.818240         2.261625
 H         2.005860         2.527293         1.784543
