19
Iteration:  1462charge 0 multiplicity 1
 C        -0.046193        -0.517129         0.283977
 C         1.381742        -0.179804         0.090556
 C         2.362221        -0.935789        -0.789640
 C         3.469871         0.149936        -0.434885
 C         3.661861        -0.065671         1.073312
 C         2.287144         0.411617         1.333804
 O         1.891770         0.873200         2.647059
 C         2.193613         1.121762         0.011302
 O         1.771022         2.308456        -0.563961
 H        -0.554203        -0.033088         1.204767
 H        -0.744487        -0.327583        -0.610030
 H        -0.124471        -1.645410         0.452649
 H         2.339390        -2.007881        -0.560311
 H         2.014369        -0.712999        -1.833908
 H         4.301245         0.545660        -1.168921
 H         3.931577        -1.106225         1.493933
 H         4.310096         0.783149         1.671251
 H         2.500691         0.435316         3.308788
 H         1.892858         2.324514        -1.539869
