19
Iteration:   404charge 0 multiplicity 1
 C        -0.037930         0.053481         0.195765
 C         1.439193        -0.233025         0.094682
 C         2.420808        -1.046816        -0.818445
 C         3.484265         0.054817        -0.479366
 C         3.803659        -0.003041         1.259714
 C         2.324526         0.332122         1.338643
 O         1.785623         0.674296         2.613937
 C         2.187973         0.951011        -0.095193
 O         1.675680         2.252724        -0.431675
 H        -0.203425         0.966773         0.845322
 H        -0.484552         0.396395        -0.787252
 H        -0.699064        -0.789653         0.504009
 H         2.801255        -2.129419        -0.547607
 H         2.118812        -0.965638        -1.898532
 H         4.309700         0.348842        -1.138391
 H         3.952724        -1.044580         1.588760
 H         4.560909         0.682692         1.580350
 H         0.797064         0.771144         2.757604
 H         2.191314         2.587696        -1.194578
