19
Iteration:  2142charge 0 multiplicity 1
 C        -0.048909        -0.487774         0.618797
 C         1.405280        -0.125766         0.247333
 C         2.224568        -0.956022        -0.689701
 C         3.402014         0.024839        -0.562674
 C         3.849392         0.037461         0.984573
 C         2.392391         0.463357         1.291549
 O         1.750393         0.682249         2.468689
 C         2.185571         1.108016        -0.066461
 O         1.863187         2.417042        -0.597715
 H        -0.708906         0.408432         0.574415
 H        -0.417336        -1.195129        -0.143835
 H        -0.138567        -0.947289         1.564039
 H         2.491236        -1.969022        -0.358488
 H         1.850341        -0.918591        -1.729229
 H         4.007143         0.171170        -1.513160
 H         4.111700        -1.115443         1.280995
 H         4.601218         0.623682         1.455374
 H         2.198563         1.246668         3.104569
 H         1.460643         2.314746        -1.487706
