19
Iteration:   993
 C        -0.057728        -0.437414         0.355784
 C         1.363138        -0.319414         0.100932
 C         2.401506        -1.050173        -0.777517
 C         3.409831         0.043983        -0.517311
 C         3.652692         0.011652         1.009511
 C         2.244731         0.352606         1.240132
 O         1.680318         0.884891         2.402737
 C         2.225580         1.049970        -0.070739
 O         2.051602         2.437590        -0.081831
 H        -0.323718        -0.016922         1.373340
 H        -0.540582         0.063078        -0.535619
 H        -0.447772        -1.482195         0.339529
 H         2.640448        -2.063264        -0.620654
 H         2.104905        -0.978784        -1.825020
 H         4.316012         0.121730        -1.078671
 H         4.219160        -0.983857         1.260726
 H         4.281116         0.903506         1.199968
 H         1.007455         1.599448         2.178215
 H         2.352934         2.833889        -0.935774
