19
Iteration:  4140charge 0 multiplicity 1
 C        -0.054481        -0.178822         0.304486
 C         1.384727        -0.033219         0.077744
 C         2.102974        -0.370689        -1.252199
 C         3.349263         0.491859        -0.619663
 C         3.741936        -0.299413         0.605871
 C         2.394999         0.032416         1.238487
 O         1.984531        -0.010288         2.515618
 C         2.285314         1.184708         0.166243
 O         1.795801         2.461576         0.416836
 H        -0.236878        -0.266925         1.377262
 H        -0.625313         0.692660        -0.076771
 H        -0.494747        -1.094449        -0.139757
 H         2.358634        -1.412281        -1.423885
 H         1.537404         0.067132        -2.073379
 H         4.101732         0.919370        -1.234646
 H         4.132785        -1.346456         0.245089
 H         4.561644         0.178273         1.054112
 H         1.503808        -0.870731         2.722723
 H         2.419705         2.949889         0.967031
