19
Iteration:  3923charge 0 multiplicity 1
 C        -0.170099        -0.116945         0.219270
 C         1.315932         0.034214         0.014806
 C         2.223774        -0.615340        -1.162059
 C         3.266368         0.422796        -0.657112
 C         3.781316        -0.351843         0.694198
 C         2.529767         0.137742         1.200591
 O         2.116544         0.158812         2.512368
 C         2.259613         1.178953         0.213179
 O         1.708314         2.402654         0.429176
 H        -0.623635        -0.144569         1.236436
 H        -0.688352         0.640089        -0.433219
 H        -0.425839        -1.079425        -0.229671
 H         2.462636        -1.705776        -1.029133
 H         1.685166        -0.477093        -2.122314
 H         3.930535         1.000081        -1.304624
 H         3.945526        -1.427599         0.508672
 H         4.666023         0.247429         1.128042
 H         1.252248        -0.280176         2.496795
 H         2.324576         2.930260         0.999829
