19
Iteration:   313charge 0 multiplicity 1
 C        -0.189804        -0.566649         0.342198
 C         1.284939        -0.183986         0.062123
 C         2.295982        -0.998734        -0.822868
 C         3.352219         0.139630        -0.445089
 C         3.692278        -0.056943         1.031246
 C         2.209887         0.319960         1.290837
 O         1.700834         0.899013         2.509202
 C         2.255232         1.071648        -0.048926
 O         2.344211         2.489202        -0.365333
 H        -0.838972         0.302214         0.294047
 H        -0.526816        -1.325701        -0.371841
 H        -0.259302        -1.091964         1.307012
 H         2.419278        -2.093768        -0.532146
 H         1.817857        -1.065431        -1.902902
 H         4.180662         0.610793        -0.926784
 H         4.090301        -1.015149         1.361366
 H         4.358549         0.684515         1.427199
 H         1.972831         0.224948         3.144497
 H         1.464964         2.844346        -0.453228
