19
Iteration:   832charge 0 multiplicity 1
 C        -0.021776        -0.005877         0.409507
 C         1.424196        -0.098522         0.063347
 C         2.417576        -1.074810        -0.610604
 C         3.452307         0.171019        -0.395026
 C         3.755709         0.119836         1.019181
 C         2.254953         0.229883         1.349066
 O         1.674903         0.244814         2.595747
 C         2.186043         1.132078        -0.096961
 O         1.843446         2.353300        -0.755077
 H        -0.190081         1.048787         0.529623
 H        -0.761468        -0.438947        -0.236668
 H        -0.183548        -0.330917         1.417190
 H         2.776533        -2.014187        -0.126802
 H         2.328095        -1.366393        -1.727737
 H         4.206822         0.117455        -1.091250
 H         4.227353        -0.727789         1.472741
 H         4.226118         1.029692         1.301718
 H         1.647203         1.212231         2.912083
 H         1.991169         3.165070        -0.211145
