19
Iteration:     2charge 0 multiplicity 1
 C        -0.078455        -0.305730         0.260509
 C         1.420812        -0.174250         0.123970
 C         2.369873        -0.996980        -0.764709
 C         3.443024         0.086349        -0.431820
 C         3.726240        -0.110253         1.093161
 C         2.303271         0.379851         1.312232
 O         1.721206         0.841087         2.467541
 C         2.243237         1.076209        -0.029119
 O         1.873536         2.325154        -0.439258
 H        -0.496800         0.460357         0.938999
 H        -0.591694        -0.203437        -0.706185
 H        -0.330484        -1.292361         0.696009
 H         2.619047        -1.998514        -0.517328
 H         2.023105        -0.932629        -1.809296
 H         4.226730         0.282829        -1.128256
 H         3.986376        -1.143867         1.365093
 H         4.456027         0.624098         1.451903
 H         1.327251         0.079673         2.949908
 H         2.324635         2.978221         0.097669
