19
Iteration:  4081charge 0 multiplicity 1
 C        -0.133278        -0.197501         0.112860
 C         1.341500        -0.040894         0.111176
 C         2.146200        -0.434358        -1.160461
 C         3.273271         0.443861        -0.717475
 C         3.716517        -0.269333         0.627641
 C         2.316633         0.102146         1.207570
 O         2.199256         0.059662         2.562105
 C         2.190613         1.126088         0.193783
 O         1.888297         2.440787         0.490654
 H        -0.366051        -1.233674        -0.178005
 H        -0.680847        -0.011400         1.052960
 H        -0.493535         0.507251        -0.681154
 H         2.590637        -1.480517        -1.168923
 H         1.618006        -0.281344        -2.128556
 H         3.896280         1.026362        -1.490224
 H         4.111310        -1.324752         0.584628
 H         4.561017         0.436570         1.053268
 H         1.257460         0.002645         2.758516
 H         2.097529         2.548843         1.443896
