19
Iteration:  1320charge 0 multiplicity 1
 C        -0.070555        -0.466853         0.120583
 C         1.408067        -0.261869         0.170513
 C         2.397911        -0.921347        -0.860823
 C         3.397278         0.118939        -0.373476
 C         3.728833        -0.130079         1.099839
 C         2.413170         0.537640         1.385058
 O         1.899130         0.911714         2.633802
 C         2.181901         1.074563        -0.023604
 O         1.705131         2.258626        -0.506702
 H        -0.685678         0.407716         0.385324
 H        -0.170219        -0.741293        -0.949591
 H        -0.365802        -1.240590         0.815235
 H         2.675549        -1.957260        -0.747366
 H         1.881122        -0.551135        -1.735738
 H         4.273450         0.290530        -1.055116
 H         3.612783        -1.160017         1.426214
 H         4.638311         0.443278         1.409312
 H         1.044346         0.404332         2.742274
 H         2.148386         2.943783         0.029133
