19
Iteration:  4248charge 0 multiplicity 1
 C        -0.144578        -0.194659         0.163555
 C         1.370342         0.011525         0.042556
 C         2.074150        -0.417542        -1.267577
 C         3.285326         0.534494        -0.733188
 C         3.733905        -0.278963         0.563304
 C         2.425036         0.017800         1.216418
 O         2.062540        -0.086404         2.561291
 C         2.277038         1.177809         0.284861
 O         1.908882         2.501502         0.585340
 H        -0.568776        -0.411274        -0.778010
 H        -0.440049        -1.033554         0.800511
 H        -0.518464         0.693382         0.705383
 H         2.116642        -1.542911        -1.399856
 H         1.539233        -0.007223        -2.156246
 H         4.042284         1.034691        -1.277075
 H         4.132762        -1.289340         0.465326
 H         4.411238         0.472612         0.821381
 H         1.223657        -0.596445         2.535805
 H         2.473742         2.789491         1.292270
