19
Iteration:  1790
 C        -0.018423        -0.499212         0.577314
 C         1.393063        -0.179448         0.214270
 C         2.262535        -1.047374        -0.683263
 C         3.367296         0.143763        -0.533317
 C         3.688838        -0.027726         1.016165
 C         2.300952         0.398892         1.264883
 O         1.847377         0.739793         2.503546
 C         2.193049         1.081618        -0.139010
 O         1.934278         2.450838        -0.566042
 H        -0.363208         0.013569         1.444347
 H        -0.672753        -0.151417        -0.233006
 H        -0.046242        -1.555816         0.621467
 H         2.609429        -2.038350        -0.398471
 H         1.777988        -1.030851        -1.663182
 H         4.089040         0.546525        -1.239979
 H         4.091627        -0.934288         1.571798
 H         4.392198         0.774296         1.177736
 H         2.444987         1.484540         2.796884
 H         1.122301         2.368082        -1.119109
