19
Iteration:  2134charge 0 multiplicity 1
 C        -0.031715        -0.469152         0.636619
 C         1.425609        -0.186497         0.205192
 C         2.258216        -1.020350        -0.712649
 C         3.359666         0.134058        -0.524366
 C         3.816332        -0.087845         0.955139
 C         2.401051         0.440392         1.270938
 O         1.724188         0.759972         2.419954
 C         2.220873         1.174769        -0.062431
 O         1.852590         2.373577        -0.521263
 H        -0.574379         0.498567         0.655235
 H        -0.477200        -1.196882        -0.068596
 H         0.000598        -0.862507         1.671186
 H         2.487942        -2.087355        -0.485701
 H         1.847337        -0.935254        -1.707722
 H         4.025047         0.131461        -1.464295
 H         4.239680        -0.967288         1.347919
 H         4.509793         0.755720         1.383843
 H         2.087986         1.410950         3.033472
 H         1.420058         2.266267        -1.403254
