19
Iteration:  1650
 C        -0.095940        -0.454017         0.526625
 C         1.377964        -0.232963         0.151420
 C         2.334981        -1.030318        -0.692718
 C         3.407986         0.151546        -0.495836
 C         3.797543        -0.012255         0.930434
 C         2.386728         0.518231         1.244768
 O         1.781063         0.803961         2.448081
 C         2.160431         1.077589        -0.017660
 O         1.854722         2.372762        -0.423911
 H        -0.605695         0.494245         0.453594
 H        -0.629927        -1.150109        -0.189728
 H        -0.189186        -0.930856         1.529743
 H         2.814994        -1.963669        -0.337823
 H         2.064230        -1.117277        -1.742387
 H         4.045524         0.359625        -1.317720
 H         4.186698        -0.906245         1.207978
 H         4.458162         0.849758         1.281774
 H         1.516099        -0.000205         2.923726
 H         1.926627         2.306536        -1.392108
