19
Iteration:  2837charge 0 multiplicity 1
 C        -0.018117        -0.193802         0.195784
 C         1.415827        -0.153212         0.208949
 C         2.245878        -0.837753        -0.839446
 C         3.365903         0.194978        -0.503383
 C         3.819581        -0.087746         0.941096
 C         2.394879         0.337802         1.297199
 O         2.043976         0.410869         2.651486
 C         2.167576         1.129970         0.058987
 O         1.565810         2.257940        -0.396830
 H        -0.187326         0.553747         1.016055
 H        -0.470112         0.354475        -0.601571
 H        -0.731664        -1.064277         0.396429
 H         2.541975        -1.894179        -0.683895
 H         1.735769        -0.592222        -1.791582
 H         4.103348         0.450010        -1.257795
 H         4.158641        -1.202757         1.097729
 H         4.344535         0.663157         1.472654
 H         1.976522         1.339337         2.942382
 H         2.268367         2.959001        -0.401960
