19
Iteration:  3486charge 0 multiplicity 1
 C        -0.136569        -0.277344         0.469994
 C         1.415856        -0.122981         0.127528
 C         2.257551        -0.653582        -1.040499
 C         3.376855         0.280201        -0.651177
 C         3.839980        -0.298008         0.829398
 C         2.400542         0.225155         1.233282
 O         1.882434         0.381557         2.581859
 C         2.248098         1.147218         0.068175
 O         1.756962         2.512525        -0.054969
 H        -0.293174        -0.583053         1.505059
 H        -0.642040         0.766809         0.257192
 H        -0.691380        -0.875515        -0.250646
 H         2.699881        -1.673714        -1.175455
 H         1.924473        -0.262572        -2.029874
 H         4.204566         0.628897        -1.249492
 H         4.160453        -1.283382         0.990673
 H         4.667708         0.342052         1.401768
 H         2.066871        -0.469390         2.995885
 H         1.044153         2.467714        -0.735162
