19
Iteration:  1806charge 0 multiplicity 1
 C        -0.003167        -0.411443         0.643219
 C         1.416308        -0.233694         0.163526
 C         2.350715        -1.029769        -0.759851
 C         3.344370         0.090099        -0.558373
 C         3.791809        -0.028714         0.897282
 C         2.331667         0.490716         1.269521
 O         1.720020         0.762672         2.529424
 C         2.149329         1.093918        -0.096513
 O         1.914851         2.362396        -0.465125
 H        -0.166387         0.230707         1.566030
 H        -0.856858        -0.204114        -0.012381
 H        -0.188613        -1.460646         1.039822
 H         2.623486        -2.060554        -0.376631
 H         2.107721        -1.092566        -1.848863
 H         4.170817         0.172639        -1.312807
 H         4.000175        -1.083189         0.997928
 H         4.601794         0.598379         1.475251
 H         1.706405         1.742138         2.638393
 H         1.468373         2.475457        -1.335416
