19
Iteration:  3875charge 0 multiplicity 1
 C        -0.099767        -0.210092         0.365561
 C         1.326439        -0.122380        -0.002653
 C         2.129686        -0.485299        -1.271876
 C         3.311602         0.366810        -0.596582
 C         3.827452        -0.261520         0.723140
 C         2.452917         0.182588         1.234778
 O         1.997128         0.233078         2.488253
 C         2.252388         1.128477         0.203758
 O         1.835020         2.410742         0.304031
 H        -0.292734        -1.283123         0.447480
 H        -0.526423         0.431788         1.107207
 H        -0.749178        -0.022420        -0.548798
 H         2.252699        -1.563764        -1.426217
 H         1.752187        -0.015645        -2.192413
 H         4.020979         0.886810        -1.281387
 H         3.908173        -1.394259         0.611709
 H         4.626123         0.178208         1.163013
 H         1.500887        -0.457770         2.946886
 H         1.991410         2.720448         1.204741
