19
Iteration:  1257
 C        -0.100273        -0.264361         0.414225
 C         1.482326        -0.334371         0.199757
 C         2.460756        -1.059041        -0.759405
 C         3.436365         0.169232        -0.487284
 C         3.793713         0.143231         1.047413
 C         2.291778         0.508264         1.336218
 O         1.487408         0.578174         2.432207
 C         2.188139         1.026205        -0.143182
 O         1.995955         2.357586        -0.393565
 H        -0.463926         0.229168         1.320164
 H        -0.581475         0.311107        -0.406769
 H        -0.512431        -1.294187         0.443500
 H         2.852347        -2.105299        -0.315024
 H         2.058960        -0.935224        -1.819469
 H         4.243257         0.314097        -1.283300
 H         4.202528        -0.786795         1.520785
 H         4.542708         0.909703         1.119735
 H         2.150293         0.694616         3.168671
 H         1.332767         2.387773        -1.092787
