19
Iteration:  1839
 C        -0.011283        -0.372280         0.584489
 C         1.443797        -0.257906         0.192683
 C         2.222292        -1.034353        -0.809562
 C         3.374068         0.044226        -0.520758
 C         3.840819         0.005557         0.982379
 C         2.353805         0.366784         1.228809
 O         1.826566         0.886869         2.369639
 C         2.204421         1.038415        -0.079212
 O         1.756792         2.322898        -0.270261
 H        -0.385668         0.608383         1.027421
 H        -0.676125        -0.618789        -0.238723
 H         0.022906        -1.178695         1.376201
 H         2.476738        -2.092194        -0.562878
 H         2.103124        -0.891093        -1.914241
 H         4.174077         0.189451        -1.328047
 H         4.224749        -0.994902         1.172656
 H         4.534554         0.834176         1.566745
 H         1.406004         1.714853         2.140049
 H         1.845554         2.555469        -1.203200
