19
Iteration:  3496
 C        -0.140762        -0.274734         0.376881
 C         1.353149        -0.124304         0.109544
 C         2.242115        -0.674133        -1.083499
 C         3.391794         0.281053        -0.563307
 C         3.813738        -0.262565         0.843904
 C         2.401313         0.235551         1.283926
 O         1.969578         0.389298         2.543606
 C         2.277170         1.222391         0.122235
 O         1.749172         2.432314        -0.017587
 H        -0.516547        -0.374686         1.389666
 H        -0.602324         0.758881         0.027229
 H        -0.536625        -1.130995        -0.213462
 H         2.342929        -1.794943        -1.160639
 H         1.728715        -0.363813        -2.021667
 H         4.047480         0.652891        -1.334005
 H         3.993316        -1.300708         0.918507
 H         4.627399         0.489133         1.238526
 H         2.381410        -0.298907         3.075130
 H         1.176340         2.348773        -0.826863
