19
Iteration:  1515
 C        -0.048342        -0.316520         0.275585
 C         1.459015        -0.231710         0.195265
 C         2.417159        -1.082499        -0.695082
 C         3.350352         0.099448        -0.538998
 C         3.837150         0.067625         0.998227
 C         2.345434         0.377785         1.309951
 O         1.805843         0.914306         2.511363
 C         2.212735         1.038731        -0.035470
 O         1.780142         2.228139        -0.402946
 H        -0.527628         0.188029         1.158431
 H        -0.599181         0.163491        -0.529361
 H        -0.337757        -1.353902         0.197050
 H         2.649992        -2.098471        -0.340179
 H         1.825210        -1.253482        -1.630308
 H         4.126763         0.196831        -1.431530
 H         4.523461        -0.655497         1.273192
 H         4.358658         1.007563         1.088620
 H         0.891046         0.586705         2.738902
 H         1.038841         2.478635         0.194044
