19
Iteration:  4547
 C        -0.125688        -0.378908         0.298668
 C         1.303166         0.084481        -0.059981
 C         2.093430        -0.124548        -1.399740
 C         3.267609         0.528919        -0.761735
 C         3.739559        -0.349608         0.503560
 C         2.364193        -0.070677         1.124066
 O         1.893387        -0.198218         2.472078
 C         2.314542         1.265447         0.331282
 O         2.146004         2.567249         0.832739
 H         0.004455        -1.465707         0.430720
 H        -0.519886         0.124484         1.157161
 H        -0.827398        -0.161705        -0.490149
 H         1.985533        -1.096223        -1.761920
 H         1.722828         0.593721        -2.155543
 H         3.944590         1.222098        -1.294848
 H         4.095151        -1.349188         0.219271
 H         4.497573         0.106823         1.084914
 H         1.186599        -0.879490         2.270683
 H         2.011441         2.498937         1.824348
