19
Iteration:   510charge 0 multiplicity 1
 C        -0.128008        -0.554160         0.472086
 C         1.365502        -0.216858         0.093375
 C         2.409109        -0.947791        -0.874539
 C         3.399366         0.133003        -0.497866
 C         3.644609        -0.170205         1.076966
 C         2.273187         0.315328         1.225995
 O         1.531977         0.873411         2.319780
 C         2.253041         1.136857        -0.017677
 O         2.176004         2.451752        -0.304716
 H        -0.555722         0.098161         1.195912
 H        -0.741205        -0.664695        -0.415548
 H        -0.128774        -1.526864         0.993375
 H         2.762548        -1.891687        -0.725542
 H         2.085815        -0.814260        -1.918944
 H         4.298299         0.465463        -0.941172
 H         3.840136        -1.168051         1.543336
 H         4.349709         0.601107         1.464212
 H         2.227685         1.267653         2.919420
 H         2.124844         3.051439         0.456685
