19
Iteration:  1274
 C        -0.044876        -0.262507         0.335180
 C         1.427060        -0.213261         0.087277
 C         2.444525        -1.060060        -0.674161
 C         3.437542         0.146649        -0.465772
 C         3.809678         0.043930         1.077407
 C         2.337428         0.370641         1.269017
 O         1.592548         0.661004         2.446214
 C         2.182083         1.087609        -0.045105
 O         1.806964         2.354406        -0.408828
 H        -0.188666         0.386411         1.225974
 H        -0.573780         0.136509        -0.530416
 H        -0.449105        -1.229697         0.632020
 H         2.789721        -1.913602        -0.225748
 H         2.276497        -1.236675        -1.728397
 H         4.137625         0.540328        -1.127406
 H         4.182133        -0.948934         1.344109
 H         4.411524         0.914396         1.493088
 H         2.087871         0.335926         3.237571
 H         1.997966         2.383485        -1.360559
