19
Iteration:  4431charge 0 multiplicity 1
 C        -0.047203         0.009785         0.381438
 C         1.386231        -0.062530        -0.057915
 C         2.146831        -0.245459        -1.341419
 C         3.329295         0.611286        -0.655043
 C         3.760665        -0.412525         0.554234
 C         2.387161        -0.008993         1.162270
 O         2.030013        -0.292749         2.492242
 C         2.307145         1.249378         0.286392
 O         1.722799         2.452490         0.615786
 H        -0.490934         0.933077         0.053679
 H        -0.654664        -0.777123        -0.094580
 H        -0.338081        -0.252700         1.405833
 H         2.251999        -1.287515        -1.672561
 H         1.693132         0.268259        -2.159960
 H         4.163693         1.074486        -1.076852
 H         3.886704        -1.419851         0.131135
 H         4.734884        -0.041226         1.032377
 H         1.194722        -0.822416         2.347189
 H         2.474903         3.026464         0.940680
