19
Iteration:   474
 C        -0.135875        -0.659271         0.252075
 C         1.322744        -0.108558         0.022883
 C         2.310124        -0.937375        -0.919276
 C         3.357069         0.089224        -0.393049
 C         3.648144        -0.149206         1.148124
 C         2.329448         0.478241         1.346720
 O         1.744602         0.810060         2.586581
 C         2.245295         1.133504         0.042235
 O         2.187234         2.427950        -0.453797
 H        -0.829817        -0.319149         1.059860
 H        -0.760699        -0.499293        -0.677211
 H        -0.020424        -1.774314         0.249460
 H         2.477290        -1.984986        -0.601670
 H         1.972842        -0.877583        -1.915701
 H         4.177468         0.311095        -1.101420
 H         3.738756        -1.138849         1.577332
 H         4.539309         0.531861         1.328640
 H         1.507857         1.764946         2.491376
 H         1.573996         2.995955         0.037789
