19
Iteration:  2245
 C         0.006645        -0.263417         0.476242
 C         1.480646        -0.243908         0.179936
 C         2.376325        -1.045470        -0.696453
 C         3.483169        -0.007371        -0.544611
 C         3.854899        -0.131271         0.989334
 C         2.392637         0.397611         1.262716
 O         1.744711         0.996508         2.361346
 C         2.243399         1.069644        -0.073713
 O         1.569628         2.266819        -0.272084
 H        -0.301645         0.070304         1.453085
 H        -0.627217         0.265608        -0.221990
 H        -0.375984        -1.331188         0.373797
 H         2.530554        -2.122364        -0.555883
 H         2.046948        -0.896656        -1.713437
 H         4.164068         0.020983        -1.369741
 H         3.836867        -1.082398         1.385684
 H         4.729060         0.509904         1.311560
 H         2.200163         1.867402         2.334091
 H         0.910104         2.149167        -0.974873
