19
Iteration:  2063
 C        -0.102157        -0.508755         0.286403
 C         1.358525        -0.268392         0.193930
 C         2.234224        -1.085259        -0.575292
 C         3.367354         0.009812        -0.635445
 C         3.828193        -0.012782         0.917483
 C         2.386447         0.431451         1.274644
 O         1.974721         1.089757         2.431785
 C         2.187584         0.994716        -0.132179
 O         1.773146         2.344818        -0.105104
 H        -0.597993         0.223811         0.899266
 H        -0.539886        -0.588385        -0.699657
 H        -0.117959        -1.483812         0.769899
 H         2.552844        -2.089965        -0.289581
 H         1.840750        -1.042841        -1.619305
 H         4.210603         0.052081        -1.279295
 H         4.494083        -0.948101         1.295087
 H         4.481755         0.814756         1.102972
 H         1.507681         1.911655         2.173090
 H         1.281619         2.445547        -0.954082
