19
Iteration:  3654charge 0 multiplicity 1
 C        -0.082553        -0.393862         0.332433
 C         1.342069        -0.083440         0.087491
 C         2.126995        -0.624948        -1.121931
 C         3.381929         0.366212        -0.647555
 C         3.781056        -0.253581         0.852947
 C         2.423346         0.262990         1.272554
 O         2.016003         0.211574         2.598386
 C         2.139647         1.202815         0.130510
 O         1.933500         2.599823         0.048581
 H        -0.400450        -1.477866         0.137290
 H        -0.144924        -0.158937         1.395463
 H        -0.862834         0.160038        -0.243422
 H         2.078059        -1.765364        -1.139985
 H         1.712185        -0.297511        -2.118755
 H         4.106478         0.966041        -1.267350
 H         3.784995        -1.364259         0.886176
 H         4.444317         0.139625         1.573286
 H         1.725431        -0.692829         2.730982
 H         1.229381         2.769830        -0.597681
