19
Iteration:  1921
 C        -0.083293        -0.480756         0.361606
 C         1.415681        -0.239041         0.242241
 C         2.252967        -1.043379        -0.693262
 C         3.305943         0.062839        -0.568040
 C         3.797982         0.042321         1.010211
 C         2.375086         0.488032         1.251365
 O         1.975856         0.800076         2.619225
 C         2.156157         1.086283        -0.092813
 O         1.825096         2.328068        -0.498321
 H        -0.467250         0.548731         0.443826
 H        -0.443311        -0.932811        -0.684300
 H        -0.541290        -1.082355         1.196094
 H         2.479636        -2.111716        -0.501761
 H         1.744640        -0.893844        -1.683220
 H         4.042478         0.408707        -1.214895
 H         4.233504        -0.889615         1.506072
 H         4.461753         0.802606         1.048258
 H         2.396586         1.645608         2.869851
 H         0.836568         2.427260        -0.481078
