19
Iteration:  1627charge 0 multiplicity 1
 C        -0.080049        -0.569438         0.461556
 C         1.359427        -0.202090         0.137690
 C         2.313457        -0.994784        -0.826487
 C         3.324958         0.151925        -0.522475
 C         3.744294         0.060262         1.038881
 C         2.290230         0.423795         1.329361
 O         1.861850         0.838766         2.632563
 C         2.110485         1.052256        -0.035519
 O         2.065447         2.386642        -0.601289
 H        -0.817955         0.230299         0.444308
 H        -0.511205        -1.389031        -0.158748
 H         0.023804        -1.065694         1.437523
 H         2.540385        -2.049190        -0.548120
 H         1.931338        -0.888412        -1.853500
 H         3.752381         0.653567        -1.435248
 H         4.103983        -0.820002         1.443902
 H         4.442926         0.901998         1.353197
 H         1.978734         0.230552         3.375592
 H         1.172804         2.507537        -0.991709
