19
Iteration:  2718charge 0 multiplicity 1
 C        -0.052534        -0.757765         0.470155
 C         1.337180        -0.138852         0.257264
 C         2.236259        -0.849276        -0.792704
 C         3.301697         0.219601        -0.606998
 C         3.789773        -0.075048         0.909874
 C         2.316432         0.377582         1.258442
 O         1.682387         0.621687         2.522199
 C         2.222981         1.224431        -0.008545
 O         2.153426         2.532974        -0.413135
 H        -0.408350        -1.507191        -0.231215
 H        -0.191825        -1.045160         1.569080
 H        -0.841353         0.110729         0.396451
 H         2.534849        -1.926267        -0.620755
 H         1.666396        -0.852879        -1.729853
 H         4.050222         0.442213        -1.346477
 H         4.029598        -1.268941         0.970855
 H         4.631980         0.439529         1.209195
 H         2.255547         1.169841         3.081469
 H         1.281916         2.934367        -0.328108
