19
Iteration:  2027charge 0 multiplicity 1
 C        -0.115887        -0.504952         0.246766
 C         1.342048        -0.356862         0.266070
 C         2.308480        -1.063492        -0.579950
 C         3.275592         0.148527        -0.536541
 C         3.767432         0.029864         0.944960
 C         2.348040         0.382651         1.321982
 O         2.020016         0.968993         2.538728
 C         2.138344         1.006341        -0.073808
 O         1.855890         2.395045        -0.427413
 H        -0.428333        -0.193354         1.241370
 H        -0.775475        -0.080571        -0.479242
 H        -0.392067        -1.601151         0.298969
 H         2.787092        -2.015311        -0.301528
 H         1.702073        -1.271544        -1.479557
 H         3.927271         0.432911        -1.319840
 H         4.247384        -0.959570         1.180387
 H         4.401978         0.992704         1.085911
 H         2.609478         1.713822         2.758345
 H         1.338668         2.427874        -1.265257
