19
Iteration:  4484
 C        -0.163052        -0.099049         0.037842
 C         1.303879         0.012726        -0.017463
 C         2.103700        -0.230991        -1.297179
 C         3.291738         0.554017        -0.728330
 C         3.713833        -0.363826         0.511303
 C         2.375114        -0.039519         1.172273
 O         2.115498        -0.135014         2.517531
 C         2.181893         1.170968         0.345654
 O         1.967254         2.466789         0.808138
 H        -0.661348        -0.347487        -0.944447
 H        -0.355108        -0.998259         0.699471
 H        -0.748461         0.759721         0.453521
 H         2.194325        -1.366114        -1.572929
 H         1.655299         0.282902        -2.197061
 H         4.024874         1.076388        -1.328539
 H         3.976101        -1.397528         0.284351
 H         4.558864         0.238076         1.014166
 H         2.446827        -0.988884         2.895385
 H         2.105133         2.339829         1.792977
