19
Iteration:  1701
 C        -0.087525        -0.246918         0.460461
 C         1.415787        -0.236853         0.136573
 C         2.390093        -1.059660        -0.737302
 C         3.450296         0.041214        -0.554650
 C         3.843515         0.031815         1.037731
 C         2.430388         0.388551         1.288833
 O         1.903815         0.923286         2.492294
 C         2.194918         1.035886        -0.111917
 O         1.566827         2.192664        -0.434572
 H        -0.370622         0.740672         0.861670
 H        -0.597910        -0.258557        -0.494013
 H        -0.430767        -1.133311         0.981664
 H         2.765601        -2.063315        -0.489248
 H         2.063885        -1.002307        -1.807793
 H         4.307383         0.170843        -1.364944
 H         4.047478        -1.074339         1.450263
 H         4.665423         0.699811         1.302839
 H         0.951020         0.714517         2.674717
 H         1.616536         2.872481         0.286260
