19
Iteration:   664charge 0 multiplicity 1
 C        -0.040593        -0.193955         0.394976
 C         1.444485        -0.205652         0.098178
 C         2.503695        -0.970261        -0.771003
 C         3.435151         0.121678        -0.408639
 C         3.708935        -0.017720         1.082248
 C         2.226110         0.282006         1.296245
 O         1.660987         0.684957         2.558555
 C         2.171496         1.101543        -0.079895
 O         1.894291         2.323551        -0.610540
 H        -0.067209         0.318171         1.370883
 H        -0.663610         0.453452        -0.224047
 H        -0.525560        -1.172707         0.435935
 H         2.715670        -1.997394        -0.351457
 H         2.279196        -1.025834        -1.913806
 H         4.214239         0.181597        -1.246282
 H         4.211772        -0.929372         1.433902
 H         4.323203         0.846307         1.263474
 H         1.423907        -0.154146         3.082444
 H         2.005470         2.902349         0.190975
