19
Iteration:  4286charge 0 multiplicity 1
 C        -0.203673        -0.185317         0.297796
 C         1.314635         0.033314        -0.074003
 C         2.196991        -0.338454        -1.300474
 C         3.369144         0.503150        -0.669223
 C         3.711858        -0.436741         0.545881
 C         2.402014         0.046989         1.103713
 O         2.114998         0.023805         2.453989
 C         2.254029         1.200781         0.264967
 O         1.831768         2.389224         0.688534
 H        -0.721059        -1.148424        -0.068208
 H        -0.246272        -0.178877         1.408150
 H        -0.904891         0.525800        -0.153577
 H         2.458719        -1.366114        -1.548903
 H         1.600984         0.040451        -2.151349
 H         4.182984         1.200722        -1.090405
 H         4.162174        -1.437465         0.381869
 H         4.608915        -0.001275         1.167273
 H         1.250876         0.317097         2.721673
 H         2.127863         2.509030         1.614945
