19
Iteration:  4689charge 0 multiplicity 1
 C        -0.080982         0.113739         0.322774
 C         1.394938         0.037843        -0.037107
 C         2.186494        -0.076047        -1.367254
 C         3.346631         0.558297        -0.670695
 C         3.774831        -0.434926         0.497654
 C         2.343921        -0.119308         1.056350
 O         2.033650        -0.370787         2.377960
 C         2.217492         1.247972         0.374929
 O         1.780807         2.406694         0.797359
 H        -0.584983         0.840112        -0.379437
 H        -0.500624        -0.884096         0.174095
 H        -0.330380         0.342041         1.402019
 H         2.224585        -1.048798        -1.941992
 H         1.553114         0.668499        -2.014761
 H         4.146837         0.927886        -1.245556
 H         4.081745        -1.500073         0.228925
 H         4.555518        -0.034487         1.140683
 H         1.898688        -1.359689         2.510658
 H         1.927685         2.491818         1.790988
