19
Iteration:  1919charge 0 multiplicity 1
 C        -0.099223        -0.490344         0.359924
 C         1.424640        -0.246666         0.242888
 C         2.241978        -1.031365        -0.675530
 C         3.311308         0.061293        -0.569506
 C         3.791620         0.031181         0.994061
 C         2.359898         0.490466         1.254406
 O         1.982634         0.810043         2.625322
 C         2.179837         1.081059        -0.098556
 O         1.825651         2.340769        -0.488602
 H        -0.512721         0.533786         0.346869
 H        -0.299262        -0.945982        -0.671292
 H        -0.615781        -1.128647         1.148775
 H         2.458289        -2.095766        -0.493413
 H         1.757663        -0.937038        -1.695664
 H         4.023980         0.404275        -1.296035
 H         4.234535        -0.905182         1.496534
 H         4.444478         0.899292         1.048402
 H         2.410221         1.637201         2.840845
 H         0.850169         2.347183        -0.434068
