19
Iteration:  2108
 C         0.006952        -0.386618         0.680747
 C         1.425196        -0.290035         0.159405
 C         2.410156        -1.034601        -0.836234
 C         3.453213         0.082583        -0.592769
 C         3.754095        -0.057906         0.961243
 C         2.352931         0.404408         1.261101
 O         1.739866         0.965305         2.395517
 C         2.101896         1.033804        -0.147981
 O         1.824541         2.308621        -0.266459
 H        -0.402625         0.632871         0.741776
 H        -0.565388        -0.976785        -0.043266
 H        -0.028772        -0.794791         1.666100
 H         2.711933        -2.083246        -0.617563
 H         1.973964        -1.086807        -1.865383
 H         4.083330         0.231469        -1.519783
 H         3.822609        -1.254851         1.296102
 H         4.486667         0.461238         1.544422
 H         1.855848         1.933518         2.464308
 H         1.177315         2.508056        -0.989899
