19
Iteration:  2351charge 0 multiplicity 1
 C        -0.024192        -0.469220         0.629541
 C         1.358946        -0.169598         0.168708
 C         2.369920        -1.050662        -0.759293
 C         3.344429         0.109697        -0.545413
 C         3.700891         0.017402         1.044108
 C         2.204354         0.453051         1.234376
 O         1.881976         0.732518         2.570249
 C         2.193612         1.136343        -0.129992
 O         1.961511         2.400205        -0.577442
 H        -0.301720         0.060005         1.567614
 H        -0.780684        -0.246453        -0.177646
 H        -0.092522        -1.514139         0.878012
 H         2.870809        -1.991396        -0.401331
 H         1.831093        -1.112985        -1.731267
 H         4.157956         0.327306        -1.222185
 H         4.186256        -1.029099         1.265761
 H         4.325599         0.663583         1.506386
 H         0.976560         1.042143         2.816191
 H         1.759423         2.331654        -1.527104
