19
Iteration:  3690charge 0 multiplicity 1
 C        -0.171964        -0.242636         0.170548
 C         1.331020        -0.140536         0.110629
 C         2.197261        -0.687201        -1.053889
 C         3.328225         0.345834        -0.708161
 C         3.836795        -0.155989         0.654563
 C         2.369404         0.106715         1.300637
 O         1.996335         0.303429         2.669712
 C         2.166139         1.117921         0.183469
 O         1.917629         2.530616         0.205872
 H        -0.494225        -0.803863         1.096801
 H        -0.619851         0.740500         0.267192
 H        -0.543863        -0.620200        -0.867565
 H         2.487580        -1.782656        -1.066860
 H         1.808804        -0.354296        -2.048258
 H         4.025518         0.844236        -1.339961
 H         4.390583        -1.155025         0.557262
 H         4.510523         0.473976         1.139876
 H         2.296216        -0.464873         3.156049
 H         1.038123         2.615326        -0.204478
