19
Iteration:  2368charge 0 multiplicity 1
 C        -0.035642        -0.390714         0.603967
 C         1.427751        -0.216780         0.148514
 C         2.308595        -0.969735        -0.783252
 C         3.456757         0.107238        -0.440637
 C         3.687844        -0.043343         1.021891
 C         2.385034         0.493345         1.295588
 O         1.875189         0.715094         2.545639
 C         2.159059         1.070697        -0.128648
 O         1.837788         2.350547        -0.578753
 H        -0.379102         0.475727         1.224531
 H        -0.875584        -0.391161        -0.120759
 H        -0.335857        -1.296168         1.195674
 H         2.556137        -2.018555        -0.570280
 H         2.173567        -0.767543        -1.870127
 H         4.250780         0.323757        -1.197291
 H         3.787246        -0.938995         1.577806
 H         4.666359         0.644326         1.295533
 H         0.953687         1.036702         2.362585
 H         1.330197         2.245029        -1.410130
