19
Iteration:  3801
 C        -0.102675        -0.423502         0.347928
 C         1.282596         0.057238         0.019162
 C         2.076865        -0.575003        -1.112951
 C         3.264665         0.387933        -0.599421
 C         3.777460        -0.155856         0.720808
 C         2.364184         0.141257         1.244698
 O         1.963950         0.033031         2.591006
 C         2.245176         1.247391         0.247415
 O         2.092634         2.624811         0.082605
 H        -0.879981        -0.119233        -0.369107
 H        -0.072479        -1.489929         0.535847
 H        -0.434392        -0.021493         1.348505
 H         2.214991        -1.696808        -1.109463
 H         1.907580        -0.256459        -2.164148
 H         4.115333         0.730619        -1.234431
 H         4.147578        -1.199228         0.652505
 H         4.520876         0.481098         1.212985
 H         1.692500        -0.898882         2.793264
 H         1.194373         2.764300        -0.270414
