19
Iteration:  4678charge 0 multiplicity 1
 C        -0.118424         0.188436         0.269508
 C         1.341137         0.041472         0.012453
 C         2.162355        -0.142973        -1.347602
 C         3.363638         0.616518        -0.637045
 C         3.697660        -0.399489         0.503753
 C         2.430089        -0.153867         1.096536
 O         2.121678        -0.422811         2.376104
 C         2.236538         1.151852         0.356468
 O         1.736207         2.425969         0.749363
 H        -0.421058         1.191229        -0.118120
 H        -0.705765        -0.546189        -0.288158
 H        -0.402157         0.199217         1.352624
 H         2.377529        -1.127255        -1.855629
 H         1.765180         0.639679        -2.108893
 H         4.147342         1.179592        -1.073857
 H         3.912394        -1.460031         0.195386
 H         4.468465         0.034333         1.124508
 H         2.085913        -1.353682         2.600599
 H         1.893072         2.511474         1.705936
