19
Iteration:  1965
 C         0.014759        -0.252493         0.730251
 C         1.495449        -0.176980         0.241886
 C         2.348097        -0.951419        -0.730217
 C         3.438775         0.183365        -0.552920
 C         3.765448        -0.043973         0.957503
 C         2.371425         0.398533         1.344596
 O         1.689613         0.629033         2.465648
 C         2.221412         1.084685        -0.123575
 O         1.757226         2.300668        -0.685457
 H        -0.010569         0.313654         1.643758
 H        -0.941406        -0.118448         0.112667
 H         0.098133        -1.305082         1.080865
 H         2.823872        -1.924298        -0.472107
 H         1.745394        -1.085142        -1.655492
 H         4.177223         0.273590        -1.292192
 H         4.004612        -1.130988         1.275402
 H         4.423033         0.610530         1.364365
 H         1.920961         1.519648         2.789055
 H         0.941387         2.041359        -1.183897
