19
Iteration:  2770
 C        -0.159395        -0.436849         0.495342
 C         1.360638        -0.263735         0.167253
 C         2.350948        -0.917095        -0.932045
 C         3.440644         0.171801        -0.569715
 C         3.747698        -0.124360         0.998795
 C         2.279361         0.279640         1.198303
 O         1.836094         0.749779         2.394357
 C         2.195656         1.097623        -0.154192
 O         1.846135         2.457756        -0.147593
 H        -0.047821        -1.329980         1.153820
 H        -0.481654         0.360213         1.083138
 H        -0.718598        -0.643279        -0.447561
 H         2.719980        -1.908018        -0.694541
 H         1.880457        -0.749929        -1.906974
 H         4.184639         0.437175        -1.330612
 H         4.364459        -1.085137         1.250784
 H         4.264742         0.794415         1.386970
 H         2.453779         1.138986         3.012260
 H         2.067108         2.950067         0.658742
