19
Iteration:  4339
 C        -0.231590        -0.218023         0.255744
 C         1.284574         0.010996         0.009798
 C         2.126929        -0.282283        -1.222892
 C         3.272243         0.610739        -0.713303
 C         3.768130        -0.352514         0.649806
 C         2.494164        -0.040984         1.171682
 O         2.071244        -0.287585         2.501862
 C         2.293797         1.269520         0.278715
 O         1.917850         2.550943         0.562307
 H        -0.456288        -0.931049         1.097067
 H        -0.865266         0.691274         0.342964
 H        -0.577140        -0.570484        -0.695964
 H         2.238739        -1.382411        -1.504793
 H         1.696130         0.125485        -2.192294
 H         3.966801         1.046872        -1.518265
 H         3.895803        -1.416607         0.301124
 H         4.583171         0.146272         1.139501
 H         1.158739        -0.076014         2.662704
 H         2.645654         3.133229         0.784335
