19
Iteration:   687charge 0 multiplicity 1
 C        -0.141731        -0.354285         0.422394
 C         1.352711        -0.264331         0.176096
 C         2.340619        -1.131437        -0.764415
 C         3.425377         0.175048        -0.467675
 C         3.814907         0.111299         1.106171
 C         2.332055         0.401753         1.218705
 O         1.659198         0.768819         2.377708
 C         2.215247         1.028054        -0.093472
 O         2.070901         2.344403        -0.374762
 H        -0.526737         0.066807         1.375349
 H        -0.715332         0.243702        -0.286376
 H        -0.450059        -1.364790         0.205000
 H         2.666788        -2.171264        -0.580343
 H         2.247834        -0.913827        -1.911612
 H         4.111566         0.635680        -1.294123
 H         4.134869        -0.845164         1.574735
 H         4.439434         0.940863         1.357961
 H         0.850315         0.263915         2.460612
 H         1.695283         2.710061         0.439331
