19
Iteration:   312charge 0 multiplicity 1
 C        -0.187882        -0.574317         0.340641
 C         1.296143        -0.185116         0.076611
 C         2.283282        -0.997650        -0.824706
 C         3.343743         0.136815        -0.450014
 C         3.693157        -0.047424         1.033877
 C         2.208631         0.308910         1.288870
 O         1.695517         0.900888         2.496793
 C         2.265325         1.070430        -0.042552
 O         2.351118         2.493961        -0.360010
 H        -0.858574         0.268850         0.310932
 H        -0.518753        -1.317311        -0.362519
 H        -0.252626        -1.084353         1.297065
 H         2.419798        -2.073528        -0.511004
 H         1.794207        -1.056830        -1.909079
 H         4.203747         0.610512        -0.966158
 H         4.061652        -1.020769         1.324507
 H         4.371890         0.709594         1.454457
 H         1.950959         0.254698         3.127836
 H         1.461976         2.836865        -0.463692
