19
Iteration:  1055charge 0 multiplicity 1
 C        -0.000099        -0.400790         0.279536
 C         1.462163        -0.153379         0.246225
 C         2.320718        -0.862453        -0.818434
 C         3.405157         0.231745        -0.483740
 C         3.592524        -0.205294         1.101744
 C         2.253206         0.461691         1.413484
 O         1.719278         0.592817         2.688686
 C         2.336035         1.155684        -0.011281
 O         1.973598         2.333305        -0.661779
 H        -0.638640         0.451950         0.487596
 H        -0.263637        -0.634890        -0.742235
 H        -0.296997        -1.286925         0.819966
 H         2.783392        -1.940509        -0.704175
 H         1.867717        -0.668002        -1.813161
 H         4.385106         0.512790        -1.098191
 H         3.704236        -1.239229         1.161762
 H         4.485627         0.306025         1.528007
 H         1.574820         1.565717         2.861568
 H         1.079545         2.357643        -1.086793
