19
Iteration:  4496
 C        -0.286503        -0.203792         0.088126
 C         1.284159        -0.082496        -0.049752
 C         2.158149        -0.227544        -1.318164
 C         3.265825         0.547755        -0.648874
 C         3.682427        -0.325805         0.449453
 C         2.396678        -0.058287         1.098208
 O         2.087265        -0.120608         2.522373
 C         2.186479         1.244207         0.327525
 O         2.068514         2.532630         0.857669
 H        -0.517772        -0.613853        -0.927414
 H        -0.766690        -0.849551         0.929109
 H        -0.695407         0.844608         0.159802
 H         2.615765        -1.296299        -1.617007
 H         1.521190         0.250303        -2.087502
 H         4.129113         0.903768        -1.106076
 H         3.970996        -1.363071         0.248216
 H         4.592851         0.171670         1.020246
 H         2.522456        -0.988383         2.712457
 H         2.093466         2.579842         1.826406
