19
Iteration:  3886
 C        -0.142127        -0.204949         0.333311
 C         1.393952        -0.091141         0.037681
 C         2.181244        -0.517507        -1.299549
 C         3.366141         0.304933        -0.705124
 C         3.789754        -0.320897         0.693709
 C         2.428706         0.108875         1.207881
 O         2.027121         0.275657         2.567354
 C         2.216088         1.169940         0.159547
 O         1.737706         2.453330         0.401331
 H        -0.392923        -1.046068         0.975139
 H        -0.491240         0.637842         0.907562
 H        -0.657981        -0.233378        -0.654353
 H         2.454443        -1.524837        -1.611548
 H         1.858728         0.065093        -2.167206
 H         4.195053         0.727473        -1.320789
 H         4.078555        -1.376872         0.921752
 H         4.522416         0.275691         1.090882
 H         1.344725        -0.400292         2.640189
 H         2.247233         2.783153         1.175367
