19
Iteration:  3354charge 0 multiplicity 1
 C        -0.051381        -0.246599         0.313581
 C         1.392491        -0.172556         0.103285
 C         2.225035        -0.805392        -1.026448
 C         3.388632         0.221907        -0.551913
 C         3.803853        -0.255881         0.841321
 C         2.430485         0.259159         1.211068
 O         2.005472         0.640201         2.506116
 C         2.201887         1.109158         0.002127
 O         1.615257         2.376538         0.146180
 H        -0.440829        -0.981855        -0.345447
 H        -0.286748        -0.644724         1.374934
 H        -0.625256         0.666409         0.086435
 H         2.348280        -1.925298        -1.040854
 H         1.945461        -0.477882        -2.058970
 H         4.083563         0.526899        -1.306184
 H         3.959994        -1.283570         0.875121
 H         4.497332         0.630806         1.150212
 H         1.947491        -0.133234         3.077596
 H         2.143283         3.007686        -0.381409
