19
Iteration:  1829charge 0 multiplicity 1
 C        -0.015372        -0.347362         0.651160
 C         1.400964        -0.201976         0.117225
 C         2.309888        -1.090320        -0.806444
 C         3.353132         0.111728        -0.544411
 C         3.834551        -0.023818         1.011038
 C         2.465273         0.407847         1.258022
 O         1.756753         0.831322         2.353678
 C         2.198678         1.029108        -0.028208
 O         1.783112         2.319987        -0.322786
 H        -0.421814         0.510208         1.314477
 H        -0.775037        -0.505417        -0.131042
 H        -0.145846        -1.283712         1.325908
 H         2.457034        -2.187653        -0.664002
 H         1.698141        -0.952007        -1.747285
 H         4.181347         0.435848        -1.296399
 H         4.123257        -1.011035         1.389473
 H         4.699905         0.780924         1.205248
 H         1.298476         1.608516         2.034846
 H         1.880473         2.529702        -1.256130
