19
Iteration:  4152
 C        -0.054097        -0.171600         0.396241
 C         1.425609        -0.050496         0.068694
 C         2.155738        -0.320581        -1.211233
 C         3.316018         0.447203        -0.681873
 C         3.815617        -0.389116         0.586742
 C         2.448035        -0.018430         1.145281
 O         1.899929        -0.024781         2.472365
 C         2.217677         1.228531         0.322927
 O         1.766917         2.536542         0.353366
 H        -0.365301         0.078509         1.430578
 H        -0.632488         0.466740        -0.304856
 H        -0.275036        -1.215148         0.137937
 H         2.309412        -1.313234        -1.612891
 H         1.747863         0.296233        -2.008146
 H         4.042209         0.960846        -1.227416
 H         4.008433        -1.531894         0.643242
 H         4.510028         0.173798         1.165043
 H         1.856098        -0.927876         2.820268
 H         2.430620         3.076061         0.807247
