19
Iteration:  1598charge 0 multiplicity 1
 C        -0.096006        -0.660240         0.421663
 C         1.390456        -0.175934         0.262918
 C         2.301622        -0.873903        -0.761708
 C         3.355650         0.111442        -0.447423
 C         3.708142        -0.026765         1.072757
 C         2.348408         0.489235         1.296779
 O         1.865182         0.826563         2.520325
 C         2.175705         1.118862        -0.092372
 O         1.894726         2.365575        -0.671998
 H        -0.807839         0.166036         0.579677
 H        -0.278786        -1.232915        -0.536646
 H        -0.171621        -1.295840         1.350242
 H         2.474160        -1.932924        -0.480702
 H         1.920088        -0.796198        -1.769541
 H         4.030665         0.393225        -1.209155
 H         3.811482        -1.146764         1.435345
 H         4.629585         0.578848         1.249947
 H         2.142085         0.367712         3.298806
 H         2.080438         3.014387         0.032165
