19
Iteration:  1562charge 0 multiplicity 1
 C         0.023720        -0.373082         0.459393
 C         1.443812        -0.213285         0.122151
 C         2.413111        -1.030571        -0.746741
 C         3.427732         0.057754        -0.519507
 C         3.700148        -0.036349         0.990197
 C         2.343710         0.368688         1.299381
 O         1.765512         0.966985         2.442205
 C         2.206765         1.031838        -0.090707
 O         1.709502         2.322820        -0.341718
 H        -0.368713         0.504783         1.005060
 H        -0.780389        -0.484393        -0.357002
 H        -0.104390        -1.372082         1.008143
 H         2.860601        -1.960274        -0.342762
 H         2.232636        -1.200859        -1.811150
 H         4.076387         0.385301        -1.312539
 H         3.987127        -0.970386         1.463925
 H         4.520977         0.758197         1.265209
 H         1.363412         0.280903         2.987763
 H         2.096074         2.741597        -1.117775
