19
Iteration:  4733charge 0 multiplicity 1
 C        -0.095351        -0.329989         0.237905
 C         1.281459         0.102084        -0.040029
 C         2.073404        -0.022895        -1.287931
 C         3.301725         0.661023        -0.645821
 C         3.700572        -0.439442         0.415465
 C         2.362942        -0.071214         1.049065
 O         1.890099        -0.299691         2.362316
 C         2.260739         1.261481         0.371950
 O         2.114790         2.517356         0.929328
 H        -0.573630        -0.725700        -0.682438
 H        -0.119062        -1.011988         1.082169
 H        -0.791442         0.476449         0.556296
 H         2.475959        -1.027101        -1.578614
 H         1.843536         0.642282        -2.165731
 H         3.965585         1.206474        -1.249532
 H         3.841496        -1.446333        -0.059113
 H         4.527471        -0.180030         1.090031
 H         1.311130        -1.090128         2.404730
 H         3.017337         2.698499         1.327540
