19
Iteration:   556
 C        -0.083563        -0.269956         0.260179
 C         1.447136        -0.196476         0.086641
 C         2.372816        -1.035827        -0.727533
 C         3.481550         0.003102        -0.506341
 C         3.688776        -0.078334         1.083665
 C         2.282052         0.338491         1.273164
 O         1.729552         0.782142         2.423336
 C         2.329045         1.116654        -0.073952
 O         1.860886         2.430724        -0.286233
 H        -0.523040         0.681607         0.590338
 H        -0.545175        -0.552081        -0.685466
 H        -0.464793        -0.915174         1.048862
 H         2.665237        -1.918489        -0.280312
 H         1.945112        -1.214977        -1.747651
 H         4.238668         0.093082        -1.347579
 H         4.165085        -1.037442         1.506852
 H         4.289377         0.783104         1.386251
 H         0.883826         0.226813         2.555321
 H         1.888053         2.891837         0.591243
