19
Iteration:  1918charge 0 multiplicity 1
 C        -0.106317        -0.494664         0.357586
 C         1.426554        -0.249753         0.245127
 C         2.237346        -1.026117        -0.669946
 C         3.314084         0.061126        -0.567996
 C         3.787733         0.024541         0.985222
 C         2.354193         0.490603         1.258934
 O         1.985016         0.813947         2.626585
 C         2.190696         1.076956        -0.100752
 O         1.825303         2.347130        -0.484475
 H        -0.543514         0.522833         0.304339
 H        -0.235293        -0.944366        -0.645645
 H        -0.635443        -1.140828         1.118635
 H         2.451834        -2.087016        -0.487278
 H         1.769350        -0.962562        -1.693001
 H         4.025711         0.398679        -1.347424
 H         4.225798        -0.897723         1.480616
 H         4.448191         0.953787         1.055682
 H         2.422100         1.643492         2.828427
 H         0.859336         2.314000        -0.414767
