19
Iteration:   765charge 0 multiplicity 1
 C        -0.089561        -0.592826         0.180995
 C         1.334371        -0.269893         0.120991
 C         2.354150        -0.919821        -0.892184
 C         3.442847         0.089315        -0.417549
 C         3.615940        -0.188506         1.117623
 C         2.213004         0.259848         1.336449
 O         1.867290         1.185518         2.444852
 C         2.280100         1.034213        -0.008879
 O         1.857096         2.385361        -0.315786
 H        -0.707360         0.176711         0.629043
 H        -0.419593        -0.927218        -0.794909
 H        -0.155721        -1.404936         0.875728
 H         2.835735        -1.899372        -1.080867
 H         2.010989        -0.636630        -1.978220
 H         4.357599         0.365885        -0.891754
 H         3.985227        -1.211502         1.267466
 H         4.225129         0.523936         1.612491
 H         2.553603         1.093306         3.079938
 H         2.103240         2.820026         0.530537
