19
Iteration:  1578charge 0 multiplicity 1
 C         0.012869        -0.533518         0.430410
 C         1.395694        -0.165328         0.089777
 C         2.339250        -1.046496        -0.730060
 C         3.372534         0.148013        -0.505459
 C         3.801450        -0.115597         1.009087
 C         2.338107         0.493314         1.293475
 O         1.752629         0.940908         2.517125
 C         2.193769         1.110239        -0.016077
 O         1.740531         2.353681        -0.496850
 H        -0.576131         0.345686         0.758878
 H        -0.503090        -0.899452        -0.451889
 H        -0.015017        -1.322915         1.184369
 H         2.534904        -2.057554        -0.314712
 H         1.915802        -1.112337        -1.756862
 H         4.328260         0.301825        -1.088811
 H         4.049651        -1.273184         1.146754
 H         4.573054         0.494213         1.438357
 H         2.002320         0.242288         3.175605
 H         2.541004         2.867881        -0.708644
