19
Iteration:  2195charge 0 multiplicity 1
 C        -0.157830        -0.314097         0.455315
 C         1.365819        -0.217506         0.217439
 C         2.360438        -1.044220        -0.646061
 C         3.351266         0.220054        -0.446387
 C         3.815121         0.003724         0.938348
 C         2.329333         0.432798         1.363440
 O         1.933807         0.648667         2.610461
 C         2.132961         1.050780        -0.125690
 O         1.861406         2.303102        -0.663217
 H        -0.550985         0.618962         0.929696
 H        -0.755688        -0.393206        -0.478725
 H        -0.543103        -1.089552         1.109884
 H         2.813923        -1.987389        -0.284956
 H         1.984369        -1.253629        -1.687021
 H         4.068025         0.444164        -1.247079
 H         4.362258        -0.983279         1.223268
 H         4.253566         0.946154         1.157632
 H         2.253889         1.458073         3.009462
 H         1.227121         2.397219        -1.397325
