19
Iteration:  1471
 C        -0.125674        -0.554422         0.232856
 C         1.358086        -0.194044         0.166058
 C         2.345644        -0.922093        -0.725522
 C         3.428333         0.141401        -0.375352
 C         3.698813        -0.062523         1.096351
 C         2.318335         0.460505         1.299099
 O         1.946405         0.861635         2.590591
 C         2.251652         1.133279        -0.028444
 O         1.689826         2.325729        -0.565588
 H        -0.584277        -0.037669         1.130440
 H        -0.674084        -0.172581        -0.638781
 H        -0.219901        -1.640782         0.253630
 H         2.653325        -1.962888        -0.515254
 H         2.142768        -0.945053        -1.818811
 H         4.366688         0.417077        -1.002170
 H         3.838808        -1.063984         1.447874
 H         4.494991         0.566997         1.496897
 H         2.419792         0.174458         3.130232
 H         2.268441         2.624539        -1.294900
