19
Iteration:  4127charge 0 multiplicity 1
 C        -0.149069        -0.177172         0.239835
 C         1.348834        -0.006404        -0.069613
 C         2.167005        -0.476092        -1.239396
 C         3.299973         0.482884        -0.731175
 C         3.789106        -0.261358         0.626615
 C         2.432857         0.082122         1.181169
 O         2.068841         0.007308         2.630005
 C         2.198637         1.199944         0.297422
 O         1.834486         2.441087         0.460563
 H        -0.331165        -0.578451         1.234633
 H        -0.656570         0.782824         0.210263
 H        -0.625413        -0.845208        -0.533019
 H         2.266936        -1.562832        -1.395185
 H         1.771811        -0.051117        -2.186053
 H         4.026906         0.976245        -1.448395
 H         3.937022        -1.405466         0.562349
 H         4.582655         0.190017         1.205466
 H         1.339105        -0.648075         2.632792
 H         2.393964         2.800898         1.200338
