19
Iteration:  3055charge 0 multiplicity 1
 C         0.016054        -0.238069         0.633649
 C         1.418739        -0.170316         0.064584
 C         2.245468        -0.793477        -0.983478
 C         3.360846         0.273312        -0.523904
 C         3.828515        -0.137597         0.875183
 C         2.356256         0.299234         1.245838
 O         1.858613         0.332327         2.563464
 C         2.182640         1.141513        -0.043355
 O         1.729363         2.393819        -0.242466
 H        -0.128680        -0.507884         1.647738
 H        -0.602115         0.574890         0.422772
 H        -0.524753        -1.063340         0.119137
 H         2.461296        -1.820098        -0.816274
 H         2.020940        -0.495561        -1.991627
 H         4.106439         0.477525        -1.329360
 H         4.286930        -1.092493         1.083215
 H         4.558376         0.704795         1.246899
 H         1.546428         1.231355         2.816351
 H         2.158914         2.833307        -0.983036
