19
Iteration:  4832charge 0 multiplicity 1
 C        -0.088451         0.080634         0.325682
 C         1.375618         0.143263        -0.095081
 C         2.092078        -0.040693        -1.446875
 C         3.292212         0.655596        -0.673432
 C         3.766142        -0.440289         0.444146
 C         2.437564        -0.099772         1.077375
 O         2.001610        -0.427045         2.424733
 C         2.319621         1.213447         0.381607
 O         1.879484         2.326228         0.981546
 H        -0.229530        -0.415091         1.322381
 H        -0.628461         1.023570         0.286840
 H        -0.609545        -0.559343        -0.401269
 H         2.032381        -1.139148        -1.813195
 H         1.789572         0.519774        -2.315343
 H         3.931088         1.246681        -1.339383
 H         3.970351        -1.519111         0.313434
 H         4.676694        -0.026426         0.957221
 H         1.806221        -1.401388         2.404065
 H         1.039101         2.684082         0.529803
