19
Iteration:  3670charge 0 multiplicity 1
 C        -0.137811        -0.330626         0.241362
 C         1.334449        -0.082382         0.101139
 C         2.160860        -0.605633        -1.076299
 C         3.250285         0.358711        -0.598631
 C         3.771897        -0.202237         0.786494
 C         2.404614         0.164203         1.273488
 O         2.033005         0.231407         2.617197
 C         2.209680         1.196339         0.176322
 O         1.955418         2.537455         0.075038
 H        -0.319700        -1.402172         0.464892
 H        -0.720004         0.296019         0.972439
 H        -0.552570        -0.199459        -0.836637
 H         2.517232        -1.646064        -1.093042
 H         1.646880        -0.346019        -2.005682
 H         3.920867         0.729888        -1.355411
 H         4.121191        -1.260715         0.817048
 H         4.609595         0.499269         1.104468
 H         2.105333        -0.657880         3.014104
 H         1.138242         2.676666        -0.414050
