19
Iteration:  1891charge 0 multiplicity 1
 C        -0.164959        -0.562458         0.218152
 C         1.365239        -0.157799         0.186216
 C         2.300900        -1.019174        -0.549011
 C         3.289440         0.116710        -0.585845
 C         3.865735        -0.103285         0.906761
 C         2.404405         0.372010         1.316157
 O         2.003131         0.957849         2.530690
 C         2.074634         1.070482        -0.023285
 O         1.822605         2.365448        -0.349253
 H        -0.673207         0.385900         0.160402
 H        -0.323640        -1.237877        -0.622973
 H        -0.465278        -1.005878         1.136876
 H         2.594612        -2.004458        -0.176816
 H         1.821260        -1.239930        -1.491759
 H         4.075209         0.420441        -1.272476
 H         4.273166        -1.067008         1.157191
 H         4.609647         0.723165         1.051243
 H         2.568354         1.732753         2.603406
 H         0.884168         2.498723        -0.504698
