19
Iteration:  2021
 C        -0.133926        -0.537312         0.294400
 C         1.389677        -0.256378         0.289952
 C         2.317085        -1.062631        -0.628540
 C         3.305336         0.134990        -0.484723
 C         3.775363         0.033750         0.906659
 C         2.294430         0.387093         1.306546
 O         1.992773         0.929360         2.563865
 C         2.151714         1.037611        -0.091371
 O         1.840061         2.356022        -0.463900
 H        -0.399898        -0.146693         1.302959
 H        -0.791392         0.058522        -0.412584
 H        -0.430727        -1.568914         0.302017
 H         2.700389        -1.986982        -0.148867
 H         1.773966        -1.124450        -1.586346
 H         3.921999         0.440794        -1.374125
 H         4.333776        -0.864235         1.309067
 H         4.418928         0.824745         1.128935
 H         2.755251         1.561849         2.674613
 H         1.394923         2.367114        -1.336987
