19
Iteration:  4941
 C        -0.109920        -0.291643         0.200891
 C         1.298514         0.151514        -0.003331
 C         2.030774         0.071934        -1.404398
 C         3.236902         0.661275        -0.627486
 C         3.685583        -0.407215         0.328602
 C         2.390675        -0.083403         1.068668
 O         1.941162        -0.475566         2.330701
 C         2.259027         1.289273         0.510711
 O         2.268451         2.510387         1.013903
 H        -0.889988         0.006996        -0.549805
 H        -0.150795        -1.394057         0.180995
 H        -0.470525         0.037891         1.190253
 H         2.217657        -0.882030        -1.930408
 H         1.607011         0.840119        -1.952770
 H         3.817996         1.308901        -1.360576
 H         3.763753        -1.465349         0.002443
 H         4.423151        -0.082170         1.098483
 H         1.695094        -1.442878         2.346708
 H         1.354728         2.768457         1.180460
