19
Iteration:  3030
 C        -0.087175        -0.346826         0.467545
 C         1.386804        -0.231901         0.035142
 C         2.325926        -0.909949        -0.993518
 C         3.347840         0.232764        -0.626071
 C         3.785819        -0.117228         0.843661
 C         2.351079         0.343907         1.266389
 O         1.971044         0.522651         2.557985
 C         2.128028         1.136049         0.051508
 O         1.762930         2.448250        -0.043059
 H        -0.416068        -1.032669         1.289828
 H        -0.515027         0.618065         0.638670
 H        -0.740043        -0.664732        -0.316327
 H         2.671174        -1.900132        -0.682137
 H         1.978111        -0.867761        -2.031446
 H         4.011361         0.464383        -1.435552
 H         4.029238        -1.193384         1.201452
 H         4.674549         0.559349         1.201906
 H         1.845687         1.452422         2.861101
 H         2.055401         2.712809        -0.922448
