19
Iteration:  4538charge 0 multiplicity 1
 C        -0.090814        -0.342519         0.253389
 C         1.247426         0.152307        -0.012662
 C         2.079544        -0.142390        -1.417880
 C         3.250459         0.543186        -0.662394
 C         3.739982        -0.319981         0.463908
 C         2.334255        -0.029352         1.107531
 O         1.928291        -0.176412         2.453985
 C         2.261127         1.191396         0.370261
 O         2.167832         2.506148         0.809847
 H        -0.130652        -1.455312         0.075659
 H        -0.545354        -0.262461         1.247072
 H        -0.692958         0.087055        -0.550828
 H         2.206551        -1.231065        -1.681589
 H         1.859501         0.472588        -2.316082
 H         3.970721         0.988065        -1.292090
 H         4.148517        -1.261185         0.178487
 H         4.494831         0.325365         0.969753
 H         1.391948        -0.997149         2.709538
 H         2.103911         2.389283         1.808435
