19
Iteration:   347
 C        -0.075951        -0.270215         0.239702
 C         1.383365        -0.139128         0.051559
 C         2.310779        -1.027967        -0.808555
 C         3.440681         0.141142        -0.364172
 C         3.683145        -0.157578         1.156424
 C         2.330790         0.481020         1.337288
 O         1.790126         0.724261         2.584006
 C         2.259002         1.093327        -0.024068
 O         1.930697         2.331516        -0.596560
 H        -0.574072         0.710721         0.215930
 H        -0.490473        -0.816251        -0.640174
 H        -0.377571        -0.710851         1.215899
 H         2.463242        -2.126892        -0.517330
 H         1.917058        -0.932533        -1.908968
 H         4.253234         0.589285        -0.843147
 H         3.758370        -1.202703         1.462223
 H         4.529013         0.390071         1.524271
 H         1.716832        -0.070855         3.072571
 H         1.493476         2.806818         0.119990
