19
Iteration:   378
 C        -0.010435         0.011339         0.186249
 C         1.494717        -0.180093         0.201843
 C         2.388037        -0.963271        -0.709194
 C         3.491829         0.054235        -0.431267
 C         3.767723        -0.097795         1.047886
 C         2.319873         0.339309         1.370883
 O         1.709632         0.683608         2.511266
 C         2.321522         1.112260         0.094286
 O         1.639939         2.142385        -0.545077
 H        -0.178584         1.042835         0.432500
 H        -0.483406        -0.089505        -0.773281
 H        -0.597554        -0.541683         0.906958
 H         2.664490        -2.009365        -0.568786
 H         1.968204        -0.741079        -1.770375
 H         4.352922         0.225406        -1.060951
 H         3.876395        -1.151265         1.318768
 H         4.629622         0.547734         1.282473
 H         0.828686         0.232902         2.743059
 H         2.260930         2.916710        -0.527280
