19
Iteration:  3813charge 0 multiplicity 1
 C        -0.058529        -0.402101         0.382729
 C         1.266382         0.067339        -0.010790
 C         2.119869        -0.470601        -1.058916
 C         3.259793         0.337403        -0.579252
 C         3.737607        -0.206217         0.790707
 C         2.412448         0.190057         1.272168
 O         1.996890         0.009912         2.542861
 C         2.075489         1.221616         0.122010
 O         2.126969         2.587659         0.105372
 H        -0.501911        -0.552932        -0.643443
 H        -0.038122        -1.451205         0.658621
 H        -0.689710         0.283952         0.992989
 H         2.289095        -1.573075        -0.887040
 H         1.643845        -0.282013        -2.056482
 H         3.827947         0.831351        -1.425017
 H         4.113899        -1.225892         0.757685
 H         4.554029         0.499506         1.191602
 H         2.014588        -0.960584         2.612007
 H         1.259393         2.990008        -0.010473
