19
Iteration:   428charge 0 multiplicity 1
 C        -0.075490        -0.194801         0.167638
 C         1.390596        -0.207221         0.189946
 C         2.380129        -1.000826        -0.722763
 C         3.435440         0.080455        -0.411574
 C         3.642766        -0.070867         1.099284
 C         2.259837         0.366319         1.299295
 O         1.866703         0.658062         2.564024
 C         2.298770         1.080894        -0.026312
 O         1.857837         2.367945        -0.438956
 H        -0.627659         0.448996         0.936542
 H        -0.517121         0.253144        -0.774345
 H        -0.561369        -1.219872         0.081882
 H         2.720716        -2.041990        -0.328288
 H         2.204846        -1.004561        -1.779361
 H         4.417793         0.337361        -0.965017
 H         4.036356        -1.059506         1.371347
 H         4.127737         0.817399         1.565061
 H         1.040258         1.079959         2.722288
 H         1.785714         2.292597        -1.400754
