19
Iteration:  4809charge 0 multiplicity 1
 C        -0.176197        -0.172133         0.213836
 C         1.301698         0.031218        -0.025281
 C         2.146528         0.005906        -1.307929
 C         3.272477         0.647855        -0.644295
 C         3.719189        -0.435109         0.390601
 C         2.407229        -0.161284         1.036450
 O         2.013053        -0.351662         2.373322
 C         2.213609         1.205649         0.463188
 O         2.107904         2.582523         0.930169
 H        -0.565736        -0.966998         0.914535
 H        -0.530875         0.824196         0.484013
 H        -0.702712        -0.255192        -0.755272
 H         2.125607        -1.032864        -1.918197
 H         1.633756         0.510035        -2.063668
 H         3.966127         1.200833        -1.226823
 H         4.032689        -1.452048        -0.014189
 H         4.588866        -0.202394         1.001409
 H         1.905046        -1.304667         2.552532
 H         1.214649         2.476127         1.253532
