19
Iteration:  3710charge 0 multiplicity 1
 C        -0.143689        -0.174901         0.202995
 C         1.395016        -0.140727         0.101540
 C         2.195721        -0.705571        -1.120327
 C         3.227026         0.363603        -0.637271
 C         3.814279        -0.216680         0.811275
 C         2.475885         0.209031         1.214139
 O         2.053935         0.337890         2.466745
 C         2.177286         1.134101         0.118747
 O         1.823377         2.410875         0.359178
 H        -0.415501        -0.195634         1.261003
 H        -0.572417         0.701572        -0.190527
 H        -0.598976        -0.924450        -0.441716
 H         2.521509        -1.776394        -1.021568
 H         1.773258        -0.513250        -2.136086
 H         3.956034         0.763255        -1.318007
 H         4.129225        -1.277795         1.045027
 H         4.506879         0.436787         1.213167
 H         2.097084        -0.537516         2.896441
 H         1.075460         2.683695        -0.226209
