19
Iteration:  3996charge 0 multiplicity 1
 C        -0.117318        -0.235195         0.453258
 C         1.275454        -0.000681        -0.031589
 C         2.209098        -0.483492        -1.247575
 C         3.341468         0.446847        -0.566466
 C         3.790983        -0.348608         0.624400
 C         2.483599         0.095884         1.308943
 O         1.878939        -0.074787         2.526122
 C         2.209404         1.219034         0.231573
 O         1.844210         2.675657         0.172204
 H        -0.872971         0.473911         0.128214
 H        -0.348375        -1.238922         0.115027
 H        -0.182040        -0.212212         1.589127
 H         2.617900        -1.435272        -1.522059
 H         1.973932         0.029416        -2.179864
 H         4.089609         0.795922        -1.372192
 H         4.070043        -1.424814         0.399607
 H         4.577357         0.191412         0.997415
 H         2.035559        -0.946292         2.974410
 H         2.348969         2.794404         1.006721
