19
Iteration:  1002
 C        -0.069489        -0.465073         0.325903
 C         1.384525        -0.247930         0.061827
 C         2.354418        -0.986315        -0.861031
 C         3.465025        -0.023637        -0.454351
 C         3.611903         0.003092         1.048663
 C         2.209287         0.408415         1.271679
 O         1.769201         0.842084         2.454391
 C         2.214519         1.050096        -0.035380
 O         2.015218         2.433686        -0.181890
 H        -0.369144        -0.012731         1.314223
 H        -0.842229        -0.110174        -0.376011
 H        -0.156742        -1.542141         0.501490
 H         2.756879        -1.986798        -0.643193
 H         2.113654        -0.955846        -1.874232
 H         4.314939         0.233294        -1.188045
 H         3.893277        -0.966078         1.579269
 H         4.388592         0.769168         1.326477
 H         1.025957         1.490645         2.270668
 H         2.480346         2.776815        -0.983108
