19
Iteration:  1478
 C        -0.149366        -0.533245         0.206666
 C         1.401549        -0.190487         0.208298
 C         2.375531        -0.947093        -0.706124
 C         3.401972         0.134015        -0.389830
 C         3.737794        -0.074121         1.132198
 C         2.310403         0.509456         1.325988
 O         1.967245         0.847718         2.545189
 C         2.202391         1.136347        -0.082411
 O         1.666760         2.331492        -0.554365
 H        -0.633289        -0.210896         1.086058
 H        -0.554191        -0.097461        -0.684746
 H        -0.321244        -1.601080         0.245599
 H         2.843417        -1.912390        -0.398287
 H         2.043656        -0.949363        -1.744160
 H         4.188165         0.228161        -1.043574
 H         3.884184        -1.152073         1.330836
 H         4.561362         0.542812         1.381521
 H         2.196833         0.099030         3.171790
 H         2.472410         2.752313        -0.967705
