19
Iteration:  1132charge 0 multiplicity 1
 C        -0.042276        -0.276727         0.199589
 C         1.465318        -0.258664         0.132270
 C         2.487886        -1.129632        -0.684478
 C         3.381166         0.069028        -0.538416
 C         3.747933         0.022476         1.052313
 C         2.298497         0.369562         1.281314
 O         1.603781         0.778866         2.397273
 C         2.214301         1.087815        -0.023263
 O         1.817786         2.422793        -0.283496
 H        -0.390927         0.663972         0.627909
 H        -0.491840        -0.496527        -0.747439
 H        -0.416504        -1.029392         0.874404
 H         2.719723        -2.142430        -0.126307
 H         2.262266        -1.399250        -1.725759
 H         4.326126         0.368529        -1.070854
 H         4.012732        -0.894667         1.498401
 H         4.479856         0.827348         1.271669
 H         1.850557         0.150626         3.135959
 H         2.453686         3.094029        -0.029968
