19
Iteration:  3966
 C        -0.071941        -0.204869         0.287997
 C         1.354569        -0.072399         0.061622
 C         2.071426        -0.407054        -1.182756
 C         3.267819         0.498658        -0.665115
 C         3.721638        -0.252788         0.756318
 C         2.364546         0.040861         1.241674
 O         2.065853        -0.055063         2.556093
 C         2.233630         1.142819         0.235402
 O         1.909422         2.555200         0.157270
 H        -0.529383         0.769417         0.530175
 H        -0.542244        -0.471242        -0.671968
 H        -0.410285        -0.853752         1.148390
 H         2.524423        -1.430174        -1.293451
 H         1.585342        -0.131140        -2.132065
 H         4.026385         0.855698        -1.375318
 H         4.257642        -1.229402         0.873716
 H         4.291245         0.555997         1.216937
 H         1.951330        -0.904352         2.977765
 H         2.144381         2.852522         1.069222
