19
Iteration:  3227charge 0 multiplicity 1
 C        -0.046125        -0.460731         0.426970
 C         1.342965        -0.140542         0.078774
 C         2.204411        -0.778474        -1.027454
 C         3.320466         0.188563        -0.609802
 C         3.762696        -0.205108         0.787111
 C         2.381907         0.279897         1.225682
 O         2.062222         0.505182         2.685096
 C         2.166481         1.188067         0.038665
 O         1.835364         2.570528        -0.049897
 H        -0.796613        -0.157411        -0.404730
 H        -0.299407        -1.477127         0.740661
 H        -0.349801         0.114546         1.343654
 H         2.236628        -1.886924        -0.851235
 H         1.766271        -0.675998        -2.046485
 H         4.073490         0.446182        -1.348520
 H         3.966154        -1.262998         1.061367
 H         4.524251         0.365836         1.154846
 H         1.094016         0.597818         2.693318
 H         2.039698         2.839521        -0.960907
