19
Iteration:  4886charge 0 multiplicity 1
 C        -0.166693         0.112957         0.184195
 C         1.352732         0.062309        -0.023986
 C         2.070023        -0.028369        -1.364834
 C         3.263690         0.724616        -0.587087
 C         3.720110        -0.356715         0.382907
 C         2.456113        -0.147968         1.131520
 O         2.146971        -0.619488         2.383741
 C         2.225558         1.211434         0.509048
 O         1.904606         2.410438         0.895518
 H        -0.358178         1.097589         0.715306
 H        -0.819635         0.149403        -0.692261
 H        -0.516113        -0.699155         0.845770
 H         2.289097        -1.126587        -1.687698
 H         1.573213         0.369249        -2.215687
 H         4.037759         1.304052        -1.145987
 H         3.804430        -1.438311         0.055696
 H         4.597140         0.042912         0.958562
 H         1.629149        -1.471754         2.310537
 H         2.090969         3.116837         0.214802
