19
Iteration:  3183charge 0 multiplicity 1
 C        -0.061794        -0.298341         0.503447
 C         1.380427        -0.182935         0.108019
 C         2.218530        -0.810063        -0.943628
 C         3.373813         0.237685        -0.665893
 C         3.851919        -0.175721         0.782382
 C         2.402368         0.174782         1.221527
 O         1.861431         0.599396         2.404500
 C         2.173772         1.057126         0.023690
 O         1.833117         2.431169         0.135357
 H        -0.668179         0.596747         0.044227
 H        -0.598493        -1.220847         0.174296
 H        -0.213147        -0.357719         1.602755
 H         2.646629        -1.848991        -0.944980
 H         1.793540        -0.745010        -1.956351
 H         4.143447         0.481020        -1.383036
 H         4.377290        -1.159016         0.796976
 H         4.525705         0.515292         1.157631
 H         1.999458         1.559597         2.463354
 H         1.013827         2.622846        -0.365487
