19
Iteration:  1644charge 0 multiplicity 1
 C        -0.091424        -0.511078         0.528057
 C         1.344897        -0.244139         0.105955
 C         2.313158        -1.008739        -0.736264
 C         3.331256         0.189890        -0.456351
 C         3.788693         0.031474         0.950270
 C         2.396783         0.484043         1.280728
 O         1.799020         0.821255         2.494385
 C         2.135843         1.081981        -0.025974
 O         1.930567         2.358877        -0.464679
 H        -0.596962         0.488153         0.479516
 H        -0.481289        -1.141468        -0.258232
 H        -0.281570        -0.831601         1.569454
 H         2.812808        -1.925516        -0.376368
 H         2.096992        -1.199549        -1.812621
 H         4.212064         0.352814        -1.173939
 H         4.272616        -1.041037         1.204652
 H         4.478735         0.817478         1.157861
 H         1.669910        -0.010992         2.957355
 H         1.708463         2.312466        -1.411236
