19
Iteration:  3165charge 0 multiplicity 1
 C        -0.152998        -0.334712         0.397258
 C         1.436829        -0.188658         0.171538
 C         2.255650        -0.910619        -0.994613
 C         3.280841         0.195291        -0.699087
 C         3.876832        -0.169791         0.755578
 C         2.445919         0.258826         1.242748
 O         1.832997         0.644188         2.493890
 C         2.214328         1.109988         0.044716
 O         1.850388         2.462025         0.086144
 H        -0.581081         0.588310         0.144132
 H        -0.388048        -1.053790        -0.316870
 H        -0.358244        -0.602079         1.450786
 H         2.515579        -1.955446        -0.804400
 H         1.761832        -0.795035        -1.968990
 H         3.919810         0.681677        -1.482491
 H         4.073675        -1.241927         0.876105
 H         4.587822         0.688943         1.104524
 H         2.542644         1.100150         2.971121
 H         0.904443         2.335277         0.305254
