19
Iteration:  4972
 C        -0.090873        -0.335563         0.316433
 C         1.292075         0.219509        -0.128000
 C         2.068691         0.099415        -1.471325
 C         3.229715         0.741004        -0.600045
 C         3.708569        -0.459664         0.265393
 C         2.400700        -0.100748         1.049718
 O         1.847700        -0.350256         2.321283
 C         2.284413         1.192090         0.501076
 O         2.213503         2.445936         1.059017
 H        -0.707832        -0.749595        -0.504245
 H         0.069572        -1.015046         1.153891
 H        -0.720343         0.450682         0.757589
 H         2.271248        -0.868161        -1.938645
 H         1.676076         0.762840        -2.261217
 H         3.878516         1.429617        -1.186632
 H         3.849339        -1.478599        -0.129882
 H         4.541498        -0.390421         0.907790
 H         1.667810        -1.268680         2.504945
 H         1.985661         2.282505         2.008665
