19
Iteration:  3956charge 0 multiplicity 1
 C        -0.103514        -0.140851         0.251769
 C         1.396367        -0.093541         0.071673
 C         2.150703        -0.529627        -1.212121
 C         3.237263         0.390250        -0.654441
 C         3.746617        -0.203499         0.677864
 C         2.345342        -0.005106         1.264886
 O         2.092558        -0.010908         2.631075
 C         2.209342         1.219646         0.210324
 O         1.882012         2.578705         0.222169
 H        -0.613485         0.740728         0.675511
 H        -0.483749        -0.296355        -0.778945
 H        -0.372551        -1.097427         0.702824
 H         2.229251        -1.596028        -1.541995
 H         1.582338         0.056006        -1.957981
 H         3.971668         0.920820        -1.239088
 H         4.295238        -1.163339         0.587760
 H         4.447013         0.515540         1.216728
 H         1.699549        -0.858671         2.876864
 H         2.072949         3.004721         1.073101
