19
Iteration:  2441
 C        -0.133115        -0.317661         0.150299
 C         1.385647        -0.222634         0.102225
 C         2.369473        -1.097849        -0.715664
 C         3.339694         0.072498        -0.494165
 C         3.822737         0.062937         1.012500
 C         2.380485         0.375641         1.307133
 O         2.037962         0.838038         2.624706
 C         2.146312         1.012858        -0.040763
 O         1.673146         2.290478        -0.264908
 H        -0.530298         0.126479        -0.838465
 H        -0.704624        -1.212428         0.321637
 H        -0.591286         0.426698         0.859375
 H         2.630118        -2.121256        -0.359575
 H         1.903940        -1.134999        -1.717684
 H         4.151502         0.338959        -1.206357
 H         4.310214        -0.956504         1.252989
 H         4.481028         0.777548         1.277744
 H         2.052326         1.806713         2.567552
 H         1.385597         2.229008        -1.189426
