19
Iteration:  1727charge 0 multiplicity 1
 C        -0.060300        -0.354824         0.313704
 C         1.408049        -0.312119         0.284952
 C         2.349886        -1.020317        -0.675886
 C         3.352437         0.146699        -0.529590
 C         3.733332         0.001496         0.966572
 C         2.343741         0.372374         1.336929
 O         2.060351         0.956383         2.523313
 C         2.135552         1.042779         0.000325
 O         1.743166         2.236425        -0.569868
 H        -0.500528         0.341431         1.007916
 H        -0.436843        -0.149269        -0.723414
 H        -0.500000        -1.333568         0.559875
 H         2.669970        -2.094542        -0.620314
 H         1.917581        -0.872670        -1.661290
 H         4.028285         0.538404        -1.201742
 H         4.041494        -0.980841         1.285378
 H         4.554961         0.766272         1.332428
 H         1.423574         0.446795         3.096069
 H         1.001555         2.713304        -0.130707
