19
Iteration:    36charge 0 multiplicity 1
 C        -0.060861        -0.684574         0.264069
 C         1.322742        -0.223995         0.159920
 C         2.208970        -0.909651        -0.732292
 C         3.354979         0.118140        -0.478515
 C         3.687586        -0.041373         1.019037
 C         2.233087         0.400201         1.238906
 O         1.754445         0.910182         2.489187
 C         2.202458         1.103611        -0.047816
 O         2.311671         2.421836        -0.304097
 H        -0.617774         0.237412         0.556144
 H        -0.461940        -0.966449        -0.745729
 H        -0.364640        -1.536150         0.916093
 H         2.429376        -1.888145        -0.422626
 H         1.819330        -1.014962        -1.770756
 H         4.025471         0.262392        -1.272816
 H         4.203696        -0.976250         1.310917
 H         4.389320         0.763602         1.340391
 H         0.827228         0.779381         2.564791
 H         1.520134         2.859943         0.052222
