19
Iteration:  1436charge 0 multiplicity 1
 C        -0.043066        -0.471649         0.450103
 C         1.465331        -0.288517         0.192348
 C         2.386414        -0.931770        -0.877461
 C         3.365665         0.160694        -0.447823
 C         3.748560        -0.039248         1.053963
 C         2.350136         0.463955         1.316230
 O         1.659705         0.778889         2.522536
 C         2.194434         1.104842        -0.011424
 O         1.933193         2.324305        -0.573958
 H        -0.450831         0.275274         1.134012
 H        -0.555561        -0.461585        -0.486939
 H        -0.328004        -1.368358         0.985058
 H         2.649909        -1.995732        -0.745583
 H         2.005179        -0.636801        -1.857312
 H         4.147556         0.585225        -1.061208
 H         3.919626        -0.998167         1.432132
 H         4.424899         0.716495         1.292502
 H         2.315178         0.749627         3.268495
 H         0.975173         2.475446        -0.688636
