19
Iteration:  4441
 C        -0.126397        -0.022446         0.305789
 C         1.372279        -0.002501         0.017726
 C         2.234823        -0.226749        -1.298930
 C         3.350953         0.513455        -0.703721
 C         3.727277        -0.358215         0.475652
 C         2.450510        -0.015559         1.122748
 O         2.037776        -0.242947         2.505714
 C         2.231695         1.200233         0.314857
 O         1.734031         2.418304         0.674853
 H        -0.544500         0.911593        -0.093683
 H        -0.699050        -0.888777        -0.053288
 H        -0.175833         0.233421         1.382610
 H         2.585645        -1.161711        -1.819673
 H         1.751385         0.441059        -2.009518
 H         3.983585         0.926961        -1.446739
 H         3.773474        -1.434997         0.241408
 H         4.555459        -0.046892         1.212807
 H         1.262275        -0.884228         2.458950
 H         2.467791         2.985400         1.024645
