19
Iteration:    85
 C        -0.047455        -0.599889         0.410929
 C         1.343817        -0.185445         0.087606
 C         2.287134        -0.975114        -0.773038
 C         3.400804         0.074850        -0.472659
 C         3.612688        -0.152998         1.004545
 C         2.270106         0.389154         1.225717
 O         1.705631         0.960124         2.361969
 C         2.280385         1.153848        -0.030850
 O         2.153123         2.494942        -0.178994
 H        -0.661496         0.150527         0.927825
 H        -0.646148        -1.060164        -0.390955
 H         0.056567        -1.460969         1.132359
 H         2.544490        -2.051618        -0.690551
 H         2.022017        -0.834999        -1.797346
 H         4.135267         0.294148        -1.274401
 H         3.705140        -1.182291         1.446721
 H         4.456577         0.383141         1.452057
 H         0.951532         0.326948         2.557627
 H         2.132236         2.693435        -1.146024
