19
Iteration:  3977charge 0 multiplicity 1
 C        -0.158820        -0.237831         0.353756
 C         1.324569        -0.028771         0.054485
 C         2.143564        -0.385072        -1.186008
 C         3.308051         0.478362        -0.623509
 C         3.793843        -0.245678         0.730411
 C         2.404401         0.062470         1.188317
 O         1.993068        -0.058400         2.546801
 C         2.181430         1.227149         0.244444
 O         1.935933         2.486171         0.144992
 H        -0.544917         0.789706         0.370540
 H        -0.735772        -0.870956        -0.348039
 H        -0.294808        -0.700217         1.365750
 H         2.331920        -1.496795        -1.239072
 H         1.706300        -0.053020        -2.142464
 H         4.001004         1.060594        -1.248813
 H         3.981393        -1.343892         0.799929
 H         4.588952         0.272525         1.284702
 H         2.216781        -1.016173         2.569266
 H         2.122937         3.026196         0.955186
