19
Iteration:  3595
 C        -0.075932        -0.344334         0.445911
 C         1.379884        -0.191249         0.123636
 C         2.239985        -0.640825        -1.119991
 C         3.321678         0.244286        -0.661557
 C         3.794460        -0.179737         0.770128
 C         2.444562         0.255379         1.209759
 O         1.875885         0.380650         2.463309
 C         2.135548         1.164111         0.105099
 O         1.921151         2.506940         0.209739
 H        -0.710589         0.069008        -0.264530
 H        -0.410984        -1.423487         0.487868
 H        -0.155575         0.026382         1.425617
 H         2.455176        -1.704200        -1.079496
 H         1.961795        -0.380113        -2.139355
 H         4.042596         0.688891        -1.325803
 H         4.036008        -1.196266         0.989084
 H         4.661354         0.490471         1.154826
 H         1.256332        -0.356379         2.665050
 H         1.435039         2.863540        -0.572484
