19
Iteration:  2817charge 0 multiplicity 1
 C        -0.128912        -0.156585         0.262097
 C         1.480389        -0.144140         0.246140
 C         2.293113        -0.954093        -0.853567
 C         3.387594         0.151615        -0.608344
 C         3.857170        -0.132496         0.883698
 C         2.464275         0.293396         1.314886
 O         1.877692         0.554968         2.610582
 C         2.280673         1.130200         0.026303
 O         1.518645         2.309156        -0.259539
 H        -0.669770        -0.014318         1.157458
 H        -0.504488         0.528400        -0.557534
 H        -0.165092        -1.166869        -0.198435
 H         2.631413        -1.971921        -0.615612
 H         1.826560        -0.712660        -1.808212
 H         4.232758         0.451561        -1.225171
 H         4.087305        -1.325887         1.174189
 H         4.652967         0.545030         0.983795
 H         2.029647         1.520156         2.776298
 H         2.113973         3.023578         0.019981
