19
Iteration:   209
 C        -0.078831        -0.161057         0.167984
 C         1.418077        -0.184771         0.209490
 C         2.301500        -0.968337        -0.814364
 C         3.379865         0.043159        -0.440430
 C         3.768406        -0.126200         0.998969
 C         2.339681         0.402583         1.401146
 O         1.863564         0.732436         2.615027
 C         2.240441         1.072042         0.036457
 O         1.854679         2.338579        -0.449197
 H        -0.572785         0.404421         0.967829
 H        -0.481834         0.174894        -0.801795
 H        -0.448564        -1.156754         0.315939
 H         2.575121        -1.986234        -0.444181
 H         1.934124        -0.922184        -1.823299
 H         4.289067         0.230543        -1.015259
 H         4.107455        -1.081934         1.442296
 H         4.502452         0.678855         1.102282
 H         0.950226         0.328287         2.800897
 H         1.429956         2.239604        -1.330289
