19
Iteration:   952charge 0 multiplicity 1
 C        -0.118970        -0.440970         0.244492
 C         1.417670        -0.184567         0.093541
 C         2.368760        -1.050928        -0.673594
 C         3.423642         0.056347        -0.466990
 C         3.788779        -0.066341         0.928622
 C         2.286830         0.295926         1.252604
 O         1.618547         0.979647         2.282160
 C         2.272591         1.054699        -0.067642
 O         1.998505         2.373107        -0.060355
 H        -0.464208        -0.248851         1.263254
 H        -0.691597         0.232651        -0.414192
 H        -0.456829        -1.476825         0.088819
 H         2.572080        -2.069205        -0.217624
 H         2.110464        -1.170941        -1.824193
 H         4.141343         0.101802        -1.215062
 H         4.303708        -0.852127         1.454747
 H         4.219744         0.851447         1.221177
 H         2.251454         1.575274         2.677437
 H         1.069259         2.418469         0.249339
