19
Iteration:  1626charge 0 multiplicity 1
 C        -0.082746        -0.577863         0.457577
 C         1.361710        -0.204512         0.141932
 C         2.304308        -0.995269        -0.823260
 C         3.336285         0.149801        -0.519393
 C         3.735754         0.060730         1.036108
 C         2.285834         0.428113         1.324177
 O         1.863943         0.839161         2.638543
 C         2.114884         1.056694        -0.030344
 O         2.067072         2.386648        -0.608829
 H        -0.827819         0.227742         0.463395
 H        -0.481071        -1.379696        -0.165891
 H         0.036945        -1.047123         1.424114
 H         2.561483        -2.055582        -0.586816
 H         1.919447        -0.868246        -1.862307
 H         3.749514         0.659374        -1.488165
 H         4.125765        -0.853696         1.465837
 H         4.392002         0.902613         1.368591
 H         1.996959         0.242807         3.371422
 H         1.165663         2.527500        -0.943363
