19
Iteration:  4404
 C        -0.073010        -0.088614         0.385547
 C         1.353316         0.102253        -0.008671
 C         2.141611        -0.175181        -1.190158
 C         3.274050         0.511864        -0.645401
 C         3.804939        -0.339767         0.553596
 C         2.410365        -0.074265         1.185973
 O         2.036018        -0.446816         2.478701
 C         2.280274         1.262391         0.384516
 O         1.798809         2.557396         0.371988
 H        -0.538158         0.860509         0.779715
 H        -0.718971        -0.279833        -0.513376
 H        -0.298723        -0.955924         1.021699
 H         2.216484        -1.243982        -1.597907
 H         1.744322         0.496495        -2.039391
 H         4.067774         0.939633        -1.350417
 H         4.092523        -1.376614         0.244710
 H         4.636473         0.059281         1.110428
 H         1.130525        -0.794980         2.229614
 H         2.218639         3.089183         1.109554
