19
Iteration:  4932
 C        -0.168740        -0.259772         0.193135
 C         1.254844         0.107645        -0.020547
 C         2.001705         0.074056        -1.286614
 C         3.241891         0.647692        -0.642630
 C         3.664505        -0.404515         0.440452
 C         2.363276        -0.046255         1.091838
 O         2.041419        -0.507133         2.279090
 C         2.321199         1.234022         0.472617
 O         2.233115         2.526102         0.990054
 H        -0.784492         0.381221        -0.514085
 H        -0.312187        -1.290184        -0.169691
 H        -0.517552        -0.205930         1.241166
 H         2.172774        -0.793703        -2.018628
 H         1.639657         0.835688        -1.971215
 H         3.938382         1.392336        -1.158800
 H         3.908055        -1.350998        -0.096124
 H         4.562881        -0.019297         1.105500
 H         1.735434        -1.421372         2.014116
 H         1.339669         2.882830         0.890864
