19
Iteration:  4860
 C        -0.102209         0.224957         0.325446
 C         1.384578         0.006322        -0.050330
 C         2.135912        -0.065603        -1.368151
 C         3.353459         0.613106        -0.633776
 C         3.812948        -0.405301         0.374425
 C         2.430469        -0.178767         1.046335
 O         2.073901        -0.519795         2.376708
 C         2.236461         1.238869         0.424468
 O         1.714186         2.389023         0.971018
 H        -0.106638         0.649047         1.332657
 H        -0.654643         0.974682        -0.305395
 H        -0.687887        -0.705918         0.321592
 H         2.057646        -0.968651        -1.884365
 H         1.793163         0.596341        -2.214295
 H         4.041438         1.056568        -1.314409
 H         4.033864        -1.466228         0.142233
 H         4.627018         0.025240         0.900060
 H         1.661094        -1.437285         2.363432
 H         1.811938         3.101931         0.281367
