19
Iteration:  3767charge 0 multiplicity 1
 C        -1.263146         0.695709         2.414680
 C         0.204765         0.999913         1.794083
 C         0.960871         2.293215         1.519318
 C         2.285803         1.427176         1.126108
 O         1.813256         0.821094        -0.054004
 C         0.838972         0.008878         0.655655
 C         0.400441        -1.298981         0.188397
 C         1.618313         0.273043         2.015196
 O         2.005144        -0.569777         3.022672
 H        -1.285164         1.437441         3.133892
 H        -2.013637         0.879013         1.578300
 H        -1.266945        -0.336287         2.874318
 H         0.651323         2.858422         0.553129
 H         1.116947         2.987386         2.365155
 H         3.297610         1.762597         1.230237
 H         0.008493        -1.923511         0.973732
 H        -0.317404        -1.149396        -0.637969
 H         1.297603        -1.870287        -0.168635
 H         1.423505        -0.210941         3.743471
