19
Iteration:  2072charge 0 multiplicity 1
 C        -1.171379         0.720337         2.177452
 C         0.241466         1.000885         1.907296
 C         0.872090         2.290061         1.549984
 C         2.189579         1.409297         1.163647
 O         1.847931         0.769782        -0.059604
 C         0.893020        -0.044606         0.806531
 C         0.143805        -1.125981         0.072404
 C         1.629926         0.225889         2.044068
 O         2.222343        -0.614511         3.082483
 H        -1.581529         0.329214         1.251024
 H        -1.352330        -0.182597         2.778217
 H        -1.790429         1.555458         2.513509
 H         0.442653         2.851792         0.742375
 H         1.067260         2.784515         2.477281
 H         3.064280         1.887101         1.394006
 H        -0.492254        -1.718262         0.729478
 H        -0.374541        -0.538034        -0.722029
 H         0.693571        -1.893457        -0.334777
 H         2.186942        -0.033408         3.861364
