19
Iteration:   217
 C        -1.062921         0.779836         2.459007
 C         0.279637         0.994574         1.813901
 C         0.919008         2.274000         1.349219
 C         2.222509         1.444887         1.143913
 O         1.810787         0.763802        -0.049859
 C         0.917543        -0.065115         0.745689
 C         0.374053        -1.358042         0.096887
 C         1.565923         0.266399         2.020361
 O         1.918662        -0.463103         3.156347
 H        -1.176828         1.351803         3.430976
 H        -2.001721         1.117198         1.857559
 H        -1.113427        -0.301024         2.580257
 H         0.490155         2.611581         0.336496
 H         1.123108         3.116445         2.021828
 H         3.119091         1.976467         1.344640
 H        -0.127230        -2.068403         0.676059
 H        -0.274667        -1.046012        -0.825286
 H         1.231644        -1.811623        -0.417629
 H         1.031590        -0.552108         3.459499
