19
Iteration:  2758
 C        -1.017800         0.671382         2.546436
 C         0.178506         0.983701         1.583143
 C         1.051108         2.354509         1.454735
 C         2.189660         1.345232         1.179683
 O         1.817912         0.791320        -0.075277
 C         0.915105        -0.006192         0.677378
 C         0.387231        -1.256127         0.142953
 C         1.433151         0.318997         1.988492
 O         1.872275        -0.477325         3.160478
 H        -1.610164         1.553303         2.560741
 H        -1.640802        -0.298360         2.275044
 H        -0.786314         0.479695         3.648440
 H         0.829246         3.105123         0.655869
 H         1.122553         2.936907         2.443266
 H         3.310293         1.620383         1.234091
 H        -0.307539        -2.019382         0.729517
 H        -0.287821        -0.899540        -0.693109
 H         1.279237        -1.744212        -0.375344
 H         1.955137        -1.443925         2.992941
