19
Iteration:   871
 C        -1.116799         0.649503         2.479294
 C         0.166245         1.040335         1.726602
 C         0.973505         2.375238         1.548569
 C         2.239008         1.438655         1.188681
 O         1.921087         0.769835         0.001034
 C         0.914166        -0.062563         0.708079
 C         0.266664        -1.269022         0.051974
 C         1.490000         0.237847         1.981490
 O         1.948102        -0.541873         2.955650
 H        -1.912892         0.083809         1.947225
 H        -0.824077         0.063757         3.369531
 H        -1.585056         1.566273         2.856904
 H         0.537700         3.089091         0.857426
 H         1.108222         2.815338         2.564370
 H         3.357084         1.817816         1.275326
 H        -0.227227        -1.794011         0.836854
 H        -0.417329        -1.174441        -0.823855
 H         1.101313        -1.897057        -0.281402
 H         2.317644         0.103023         3.576028
