19
Iteration:  3513charge 0 multiplicity 1
 C        -1.030496         0.634276         2.384041
 C         0.258841         0.968893         1.779598
 C         0.888149         2.344276         1.441238
 C         2.187724         1.500116         1.159081
 O         1.880563         0.709893         0.021168
 C         0.935990        -0.056402         0.725395
 C         0.291642        -1.207212         0.074487
 C         1.549724         0.261947         2.015539
 O         1.942069        -0.521997         3.087164
 H        -1.300027         1.308777         3.168953
 H        -1.895571         0.722515         1.556732
 H        -1.209534        -0.379508         2.815212
 H         0.614162         2.983655         0.529848
 H         1.059896         2.983192         2.388269
 H         3.172447         2.010853         1.089292
 H        -0.200958        -2.068674         0.681617
 H        -0.535055        -0.925129        -0.558168
 H         1.059900        -1.763204        -0.509573
 H         1.656217         0.009308         3.863957
