19
Iteration:  2191
 C        -1.109765         0.746464         2.465258
 C         0.218606         1.000505         1.727390
 C         0.885635         2.296486         1.517214
 C         2.222896         1.454592         1.204873
 O         1.932306         0.850005        -0.110996
 C         0.884407         0.025189         0.722631
 C         0.371485        -1.306633         0.195741
 C         1.550699         0.207877         1.940656
 O         1.889906        -0.632670         2.988492
 H        -1.633112         1.625093         2.585921
 H        -1.868347        -0.003554         2.098067
 H        -0.776141         0.459562         3.489687
 H         0.523644         2.856383         0.648091
 H         1.050629         2.955372         2.396108
 H         3.224268         1.759667         1.211179
 H        -0.275688        -1.867790         1.013677
 H        -0.299509        -1.165966        -0.701523
 H         1.203875        -1.971782        -0.060058
 H         1.965026         0.022679         3.692812
