19
Iteration:  4280
 C        -1.259343         0.800192         2.180751
 C         0.150961         0.989424         1.783516
 C         1.036054         2.335929         1.607646
 C         2.177963         1.416511         1.182390
 O         1.742495         0.817753        -0.171676
 C         0.968865        -0.021601         0.767624
 C         0.394610        -1.362965         0.277046
 C         1.607591         0.286198         2.089973
 O         2.069027        -0.608362         3.011178
 H        -1.537986         1.214264         3.260759
 H        -1.995938         1.182403         1.455245
 H        -1.495712        -0.337679         2.225906
 H         0.626162         2.979781         0.851010
 H         1.219409         2.815304         2.597068
 H         3.169980         1.953639         1.138842
 H         0.104351        -2.096430         1.098998
 H        -0.615908        -1.149085        -0.234675
 H         0.987524        -1.958320        -0.566227
 H         2.194027        -0.036991         3.777632
