19
Iteration:  1881charge 0 multiplicity 1
 C        -1.216961         0.605270         2.146493
 C         0.258866         0.955734         1.908044
 C         0.961805         2.325338         1.514180
 C         2.206310         1.445534         1.116017
 O         1.809323         0.749645        -0.024068
 C         0.999077        -0.110241         0.823696
 C         0.158241        -1.142318         0.120569
 C         1.566706         0.331819         2.096662
 O         2.123699        -0.542728         3.071113
 H        -1.822156         1.339175         2.628629
 H        -1.679779         0.340978         1.162867
 H        -1.230439        -0.333196         2.821884
 H         0.592018         2.802249         0.645584
 H         1.217376         2.994612         2.320227
 H         3.133898         2.030783         1.060674
 H        -0.478599        -1.689465         0.737139
 H        -0.328177        -0.624414        -0.629226
 H         0.869372        -1.916868        -0.359182
 H         2.153713         0.050201         3.867261
