19
Iteration:  4672
 C        -1.051814         0.630795         2.334493
 C         0.222764         1.012207         1.733606
 C         0.918388         2.336461         1.459079
 C         2.170953         1.450918         1.161933
 O         1.768115         0.830887        -0.013501
 C         0.886577        -0.068940         0.713329
 C         0.252703        -1.280385         0.100960
 C         1.588604         0.238681         2.071402
 O         2.070439        -0.493977         3.159458
 H        -1.401938         1.231317         3.135918
 H        -1.723575         0.788490         1.481683
 H        -1.203684        -0.350131         2.504691
 H         0.425401         2.944683         0.704704
 H         1.029333         2.922506         2.279443
 H         3.225378         1.714439         1.180447
 H         0.115773        -1.447869        -0.965983
 H         0.582309        -2.203694         0.599931
 H        -0.796143        -1.155080         0.403433
 H         3.028844        -0.424898         3.159172
