19
Iteration:  3244charge 0 multiplicity 1
 C        -1.146115         0.652505         2.268014
 C         0.205076         0.982863         1.755259
 C         0.931376         2.233206         1.464644
 C         2.197336         1.329940         1.233157
 O         1.926589         0.682328        -0.015432
 C         0.886884        -0.008072         0.634263
 C         0.177066        -1.138236         0.069618
 C         1.503319         0.245485         2.048552
 O         2.186064        -0.311725         3.194458
 H        -1.433427         1.410952         3.130715
 H        -1.840660         0.629964         1.451797
 H        -1.359690        -0.242556         2.958753
 H         0.473522         3.085854         0.923190
 H         1.002632         2.810316         2.456079
 H         3.210401         1.664159         1.289656
 H        -0.583338        -1.477945         0.810293
 H        -0.455621        -0.773655        -0.768437
 H         0.618059        -2.057633        -0.209803
 H         2.078157        -1.301868         3.123332
