19
Iteration:  3305
 C        -1.088666         0.718554         2.395412
 C         0.258438         1.004287         1.787056
 C         0.928294         2.259132         1.475880
 C         2.254865         1.442935         1.133495
 O         1.813774         0.715737        -0.088059
 C         0.924650         0.018216         0.770699
 C         0.370736        -1.254143         0.104240
 C         1.540871         0.241261         2.024279
 O         1.896669        -0.531974         3.103195
 H        -1.126456         1.150763         3.346272
 H        -1.918793         1.178063         1.727570
 H        -1.326465        -0.355488         2.468055
 H         0.568155         2.855307         0.597492
 H         0.885704         2.933224         2.347559
 H         3.296352         1.835202         1.022292
 H         0.194418        -2.090877         0.860237
 H        -0.539498        -0.922926        -0.384534
 H         1.156986        -1.516582        -0.691962
 H         1.729555         0.067218         3.881683
