19
Iteration:  3532
 C        -1.138908         0.645839         2.379212
 C         0.159714         0.980175         1.622461
 C         0.907722         2.238297         1.431151
 C         2.213528         1.504645         1.198235
 O         1.920442         0.755886        -0.098042
 C         0.946845        -0.011837         0.737037
 C         0.309910        -1.228670         0.161481
 C         1.592234         0.355510         2.105102
 O         1.897082        -0.569176         3.085117
 H        -1.052582         1.097103         3.397158
 H        -2.129981         0.931690         2.059217
 H        -1.050512        -0.368327         2.517982
 H         0.656342         2.969186         0.596783
 H         0.938853         2.812142         2.472186
 H         3.284026         1.754384         1.231345
 H         0.213324        -1.856228         1.015945
 H        -0.611009        -0.966312        -0.302884
 H         0.971791        -1.654920        -0.565812
 H         2.361043        -0.271677         3.870013
