19
Iteration:  2944
 C        -0.978462         0.765171         2.483714
 C         0.199891         0.988938         1.697820
 C         0.918353         2.381712         1.481739
 C         2.126935         1.407077         1.136027
 O         1.893234         0.664750        -0.065171
 C         0.894410        -0.013925         0.736522
 C         0.414345        -1.319978         0.140795
 C         1.461933         0.369366         2.010141
 O         1.803091        -0.510851         3.092453
 H        -0.827351         1.177259         3.447910
 H        -1.881415         1.191688         2.006423
 H        -1.196314        -0.326728         2.550692
 H         0.763433         3.136506         0.803827
 H         1.123562         2.951383         2.368964
 H         3.300866         1.725069         1.102137
 H        -0.002212        -1.930150         0.902566
 H        -0.155263        -1.167122        -0.690554
 H         1.310001        -1.853425        -0.141357
 H         2.517395        -1.061543         2.682548
