19
Iteration:   655charge 0 multiplicity 1
 C        -1.060406         0.799002         2.529032
 C         0.200192         0.938278         1.764283
 C         0.942201         2.336247         1.530450
 C         2.223064         1.503858         1.140773
 O         1.877209         0.698455        -0.134080
 C         0.882231        -0.058953         0.628873
 C         0.488637        -1.379392         0.146639
 C         1.527229         0.265057         1.929962
 O         1.802542        -0.493180         3.059743
 H        -0.903780         0.508984         3.608947
 H        -1.526616         1.825509         2.635416
 H        -1.691567        -0.042053         2.175625
 H         0.624706         2.919946         0.673811
 H         0.768599         2.906081         2.482762
 H         3.291146         1.974664         1.192102
 H         0.070226        -1.863830         1.124960
 H        -0.365141        -1.336142        -0.592981
 H         1.289578        -1.915733        -0.221659
 H         1.683642         0.126568         3.766719
