19
Iteration:  3406charge 0 multiplicity 1
 C        -1.141710         0.732619         2.233815
 C         0.251910         0.934270         1.796855
 C         0.937973         2.330947         1.452339
 C         2.157760         1.483263         1.212073
 O         1.825717         0.714951        -0.050512
 C         0.846426        -0.053196         0.798903
 C         0.315266        -1.209538         0.148260
 C         1.554766         0.280399         2.094773
 O         2.129142        -0.512479         3.090669
 H        -1.384127         1.175861         3.222580
 H        -1.753624         1.026110         1.409289
 H        -1.421211        -0.412355         2.423203
 H         0.507755         2.826227         0.542689
 H         0.856589         3.037576         2.322283
 H         3.117285         1.957465         1.176718
 H        -0.690539        -1.442075         0.678525
 H         0.064882        -0.781623        -0.864458
 H         1.158509        -1.939696         0.245510
 H         1.763886        -1.427078         3.073523
