19
Iteration:  3261charge 0 multiplicity 1
 C        -1.123712         0.689519         2.315340
 C         0.203900         0.890274         1.693850
 C         0.949299         2.266427         1.503299
 C         2.194494         1.424549         1.258277
 O         1.888385         0.706154        -0.057844
 C         1.011274        -0.112840         0.765518
 C         0.132727        -1.146524         0.109678
 C         1.557235         0.263816         2.033991
 O         2.075461        -0.345652         3.104219
 H        -1.251408         1.363808         3.074742
 H        -2.004770         0.654346         1.578278
 H        -1.153057        -0.312568         2.759269
 H         0.690915         2.886256         0.603204
 H         0.984303         3.012999         2.308287
 H         3.236081         1.848877         1.355426
 H        -0.541982        -1.687700         0.799166
 H        -0.459638        -0.623824        -0.631018
 H         0.915161        -1.783791        -0.443951
 H         1.627502        -1.182685         3.407744
