19
Iteration:  2086charge 0 multiplicity 1
 C        -1.227156         0.687143         2.206133
 C         0.253244         0.876341         1.763574
 C         0.958683         2.238469         1.610379
 C         2.191476         1.447885         1.207682
 O         1.818097         0.732444        -0.059293
 C         0.934284        -0.023644         0.745638
 C         0.168458        -1.119438         0.081712
 C         1.592294         0.278836         2.134830
 O         2.168200        -0.531507         3.039710
 H        -2.048399         0.657423         1.329931
 H        -1.285975        -0.052750         2.978145
 H        -1.497790         1.606050         2.780088
 H         0.543541         2.976545         0.881784
 H         1.124742         2.810748         2.521390
 H         3.228226         1.689806         1.009874
 H        -0.405729        -1.675688         0.758495
 H        -0.557491        -0.764524        -0.743620
 H         0.923413        -1.699981        -0.440592
 H         2.304839        -0.154282         3.948552
