19
Iteration:   523
 C        -1.241907         0.824416         2.100059
 C         0.233356         0.983785         1.921745
 C         0.957375         2.261920         1.554120
 C         2.135857         1.456875         1.123743
 O         1.697623         0.762205        -0.058897
 C         0.908620        -0.134813         0.851319
 C         0.353605        -1.316487         0.234475
 C         1.707751         0.276688         2.015902
 O         2.124776        -0.515700         3.042547
 H        -1.598058         0.724176         3.201589
 H        -1.796226         1.664282         1.539085
 H        -1.711147        -0.123478         1.704045
 H         0.567949         2.624591         0.599998
 H         1.134107         3.087046         2.256495
 H         3.212384         1.760868         1.257289
 H        -0.403716        -1.904955         0.893226
 H        -0.316584        -0.845401        -0.636679
 H         1.140687        -1.842418        -0.268144
 H         2.516532        -0.078987         3.813182
