19
Iteration:  1056
 C        -1.085971         0.660937         2.507209
 C         0.231721         0.988194         1.708537
 C         0.898832         2.332061         1.596835
 C         2.235945         1.390507         1.234885
 O         1.920899         0.790549        -0.052671
 C         0.806928         0.027279         0.647499
 C         0.277255        -1.165604         0.019497
 C         1.586942         0.270961         2.001567
 O         1.953560        -0.597702         2.971982
 H        -1.117192         1.345923         3.380059
 H        -2.028327         0.893644         2.062024
 H        -1.103635        -0.372109         2.811266
 H         0.838626         2.980617         0.773767
 H         1.087430         2.620868         2.599429
 H         3.364433         1.607956         1.335209
 H        -0.124659        -1.642393         0.825929
 H        -0.464130        -1.188537        -0.848977
 H         1.168979        -1.707758        -0.333646
 H         1.525450        -0.431382         3.793136
