19
Iteration:  1777charge 0 multiplicity 1
 C        -1.121024         0.767368         2.434950
 C         0.209130         0.990444         1.725577
 C         0.944387         2.404755         1.420211
 C         2.198694         1.502805         1.127581
 O         1.762537         0.768862        -0.069505
 C         0.974338        -0.103735         0.787337
 C         0.566808        -1.339777         0.199963
 C         1.564921         0.343557         2.042521
 O         1.790582        -0.695407         3.028853
 H        -0.703789         0.515732         3.488641
 H        -1.694494         1.716486         2.500806
 H        -1.806884         0.032707         2.046862
 H         0.673282         2.972558         0.442326
 H         0.827305         3.145099         2.270102
 H         3.209479         1.940746         0.862738
 H         0.078958        -2.042415         0.998237
 H        -0.139168        -1.178485        -0.753160
 H         1.489923        -1.773249        -0.121282
 H         1.718250        -0.055074         3.763936
