19
Iteration:  3340
 C        -1.072096         0.802346         2.360087
 C         0.160745         1.044345         1.703162
 C         0.919316         2.333202         1.556368
 C         2.226210         1.472628         1.173607
 O         1.891297         0.773478        -0.108455
 C         0.862693        -0.026004         0.665936
 C         0.409951        -1.393112         0.183914
 C         1.479761         0.233623         2.013603
 O         1.889426        -0.569446         3.106607
 H        -0.969110         1.033797         3.458919
 H        -1.860608         1.487895         2.053214
 H        -1.425737        -0.334034         2.353439
 H         0.707607         3.110082         0.696255
 H         0.872990         2.836837         2.644584
 H         3.244559         1.808816         1.324090
 H         0.185632        -2.109627         1.084109
 H        -0.524158        -1.392077        -0.413389
 H         1.205201        -1.897651        -0.470096
 H         2.782310        -0.170204         3.122845
