19
Iteration:   186charge 0 multiplicity 1
 C        -1.148035         0.705673         2.340883
 C         0.162694         0.941665         1.609453
 C         0.887730         2.299463         1.525319
 C         2.162299         1.366847         1.160284
 O         1.925123         0.640260        -0.042796
 C         0.949780        -0.088669         0.674195
 C         0.234543        -1.231982         0.094849
 C         1.512903         0.316876         2.053635
 O         2.166162        -0.334820         3.152260
 H        -1.215571         1.528636         3.037118
 H        -2.067679         0.691117         1.655397
 H        -1.054953        -0.191173         2.968541
 H         0.532221         3.207682         1.047402
 H         1.207274         2.652060         2.496065
 H         3.210104         1.725416         1.487257
 H        -0.566461        -1.519589         0.862595
 H        -0.309656        -0.881608        -0.868686
 H         0.825224        -2.121812        -0.071289
 H         1.405641        -0.453910         3.832736
