19
Iteration:  1712charge 0 multiplicity 1
 C        -1.108939         0.650131         2.254481
 C         0.222222         0.900109         1.726194
 C         0.903371         2.275428         1.502345
 C         2.195536         1.469393         1.156768
 O         1.861889         0.718654        -0.083264
 C         0.998212        -0.059216         0.752859
 C         0.228309        -1.237532         0.095051
 C         1.488744         0.289820         2.137856
 O         2.072752        -0.379488         3.119381
 H        -0.923976         0.213556         3.336284
 H        -1.750658         1.532090         2.224624
 H        -1.749859        -0.059714         1.802962
 H         0.744634         2.921230         0.580492
 H         0.833003         2.786833         2.460341
 H         3.223069         1.882311         1.346326
 H        -0.422686        -1.765001         0.869995
 H        -0.249712        -0.943454        -0.933937
 H         0.794648        -2.047698        -0.156114
 H         1.981560        -0.159657         4.091233
