19
Iteration:  3663
 C        -1.153077         0.628270         2.277565
 C         0.231480         0.900267         1.701212
 C         0.949748         2.317519         1.521197
 C         2.200796         1.405592         1.138543
 O         1.894909         0.732088        -0.064938
 C         0.857315        -0.045056         0.776431
 C         0.188543        -1.171208         0.099877
 C         1.570623         0.312144         2.061450
 O         2.135024        -0.440292         3.153678
 H        -1.364747         1.339372         3.203356
 H        -2.035043         0.699068         1.642345
 H        -1.260405        -0.356823         2.732142
 H         0.599328         2.964503         0.824695
 H         1.185663         2.818153         2.433520
 H         3.112849         2.068717         1.168352
 H        -0.695510        -1.664389         0.525461
 H        -0.114137        -0.924647        -0.994019
 H         0.938927        -1.934822        -0.099369
 H         1.577928        -0.604444         3.937631
