19
Iteration:  4116
 C        -1.094858         0.715451         2.498364
 C         0.127268         0.980798         1.676230
 C         0.922635         2.265830         1.409452
 C         2.169060         1.424816         1.154484
 O         1.953895         0.818355        -0.031394
 C         0.910041        -0.005049         0.732114
 C         0.280288        -1.364636         0.115301
 C         1.509528         0.378973         2.019549
 O         2.031246        -0.558985         3.056567
 H        -0.915642         1.053527         3.556245
 H        -1.728141         1.478048         2.034483
 H        -1.400670        -0.314046         2.333308
 H         0.519698         2.883230         0.561336
 H         1.143378         2.861129         2.437121
 H         3.222830         1.669217         1.291007
 H        -0.129269        -1.895533         0.944167
 H        -0.407727        -1.084801        -0.665908
 H         1.100292        -1.901537        -0.350265
 H         1.506880        -0.409614         3.893468
