19
Iteration:   132
 C        -1.195350         0.710736         2.150717
 C         0.267086         0.987582         1.916701
 C         0.894015         2.252554         1.464529
 C         2.170898         1.502178         1.051371
 O         1.783426         0.658871        -0.134898
 C         0.979885        -0.107474         0.828898
 C         0.267456        -1.126075         0.171390
 C         1.556622         0.227321         2.107173
 O         2.169252        -0.511757         3.201658
 H        -1.648345         1.277970         2.888379
 H        -1.638166         0.767330         1.168421
 H        -1.296342        -0.304402         2.487521
 H         0.461990         2.674460         0.611016
 H         0.982935         3.013441         2.218912
 H         3.139763         2.124980         0.997460
 H        -0.645968        -1.428817         0.711283
 H        -0.091354        -0.623156        -0.769415
 H         0.869763        -1.993790        -0.004154
 H         1.902653         0.010069         4.049146
