19
Iteration:  3773charge 0 multiplicity 1
 C        -1.254027         0.718505         2.358035
 C         0.262630         0.969217         1.787273
 C         0.959688         2.315084         1.557010
 C         2.238892         1.446987         1.127073
 O         1.802628         0.789036        -0.097628
 C         0.814293         0.031916         0.734339
 C         0.435646        -1.308297         0.221539
 C         1.607848         0.274986         1.949924
 O         2.013717        -0.594155         3.037514
 H        -1.255467         1.469809         3.259082
 H        -1.957388         0.905830         1.551355
 H        -1.416674        -0.288816         2.665913
 H         0.573302         2.836659         0.700105
 H         1.070583         3.035204         2.375502
 H         3.304866         1.789881         1.250198
 H        -0.042979        -1.968303         1.020100
 H        -0.334781        -1.037695        -0.506439
 H         1.371383        -1.687557        -0.197685
 H         1.406278        -0.313926         3.725106
