19
Iteration:  2294charge 0 multiplicity 1
 C        -1.163254         0.676765         2.290459
 C         0.210442         0.994117         1.720318
 C         0.933124         2.258647         1.511254
 C         2.216964         1.424551         1.177825
 O         1.924195         0.682743        -0.003125
 C         0.853463         0.032483         0.645968
 C         0.184255        -1.221386         0.148904
 C         1.535369         0.331152         2.117765
 O         2.130578        -0.532040         3.038816
 H        -1.203193         1.119843         3.374228
 H        -1.991086         0.975528         1.680189
 H        -1.309120        -0.400292         2.357579
 H         0.518631         2.971471         0.712987
 H         1.138976         2.832509         2.458010
 H         3.187621         2.010627         1.311158
 H        -0.393442        -1.652990         0.976209
 H        -0.763274        -1.090870        -0.622867
 H         0.948635        -1.972431        -0.266096
 H         2.311291         0.077787         3.803192
