19
Iteration:  3537
 C        -1.123800         0.678446         2.370750
 C         0.148692         0.985624         1.647365
 C         0.877245         2.283197         1.429203
 C         2.189180         1.432657         1.180341
 O         1.923748         0.784671        -0.091479
 C         0.989684         0.001272         0.710307
 C         0.342979        -1.207871         0.185873
 C         1.583406         0.378240         2.072017
 O         1.893095        -0.596651         3.095359
 H        -0.993442         0.964504         3.415390
 H        -2.209332         0.934747         2.039219
 H        -1.237875        -0.504076         2.496558
 H         0.705660         2.999721         0.606637
 H         0.998657         2.761712         2.383823
 H         3.242152         1.665912         1.356251
 H         0.179443        -2.021986         1.018175
 H        -0.756294        -1.107255        -0.126896
 H         0.982083        -1.816959        -0.520803
 H         2.486345        -0.255675         3.819458
