19
Iteration:   874charge 0 multiplicity 1
 C        -1.112883         0.657162         2.449057
 C         0.188053         1.017994         1.737078
 C         0.953940         2.371766         1.548392
 C         2.234264         1.418099         1.201604
 O         1.914146         0.769153        -0.008968
 C         0.876472        -0.068917         0.701746
 C         0.287721        -1.254325         0.055555
 C         1.487615         0.259257         1.984770
 O         1.970304        -0.561358         2.971526
 H        -1.858822         0.109481         1.936915
 H        -0.747513         0.161536         3.319764
 H        -1.637557         1.500692         2.816103
 H         0.547482         3.108259         0.848245
 H         1.143208         2.911955         2.552929
 H         3.277274         1.836521         1.257436
 H        -0.303202        -1.768140         0.944038
 H        -0.369932        -1.030732        -0.811950
 H         1.037137        -1.872333        -0.297860
 H         2.334887         0.143207         3.596865
