19
Iteration:  3802
 C        -1.178921         0.842332         2.168174
 C         0.233690         0.968558         1.782827
 C         0.947560         2.317129         1.600287
 C         2.170461         1.541923         1.085983
 O         1.743620         0.835613        -0.015318
 C         0.980330        -0.063831         0.783160
 C         0.379461        -1.422602         0.232078
 C         1.546965         0.316978         2.029968
 O         2.093923        -0.678607         3.008087
 H        -1.365507         1.037614         3.241489
 H        -1.862121         1.512866         1.631974
 H        -1.659694        -0.198151         2.029700
 H         0.336337         3.058050         0.807819
 H         1.182184         2.867109         2.521412
 H         3.168045         1.991034         1.011215
 H         0.059918        -1.887395         1.118655
 H        -0.624743        -1.232447        -0.279102
 H         1.025604        -2.003367        -0.407701
 H         1.948949        -0.423732         3.956537
