19
Iteration:   350
 C        -1.236126         0.730131         2.188625
 C         0.251034         0.948171         1.899712
 C         0.840529         2.317325         1.481534
 C         2.154008         1.426767         1.164436
 O         1.847900         0.685807        -0.045581
 C         1.059854        -0.139318         0.732612
 C         0.229317        -1.232170         0.088114
 C         1.520656         0.282764         2.115335
 O         2.254317        -0.403924         3.124125
 H        -1.572563         1.548675         2.792220
 H        -1.959208         0.834791         1.362968
 H        -1.468980        -0.159575         2.796109
 H         0.447521         2.883669         0.596005
 H         0.955767         3.139165         2.259214
 H         3.114674         1.988611         1.302211
 H        -0.582298        -1.500546         0.800497
 H        -0.198229        -0.918549        -0.854794
 H         0.755524        -2.091701        -0.165007
 H         1.616919        -0.997359         3.525313
