19
Iteration:  1534charge 0 multiplicity 1
 C        -1.121623         0.738865         2.350604
 C         0.129567         0.971562         1.670599
 C         0.905036         2.265102         1.548052
 C         2.137285         1.445209         1.288563
 O         1.959511         0.782383        -0.031689
 C         0.912519        -0.113111         0.702641
 C         0.280175        -1.308659         0.085931
 C         1.472577         0.256171         2.017784
 O         2.116160        -0.475816         3.051429
 H        -1.590831         1.765782         2.314212
 H        -1.861748         0.194588         1.744867
 H        -0.946719         0.372396         3.395191
 H         0.569688         2.936105         0.748594
 H         0.964054         2.950503         2.472547
 H         3.067695         1.925022         1.185859
 H        -0.566668        -1.641520         0.620055
 H        -0.176200        -1.113985        -0.914177
 H         1.145275        -2.079813        -0.098645
 H         2.162094        -0.037935         3.953461
