19
Iteration:  2810
 C        -1.172286         0.792533         2.345216
 C         0.264561         0.883303         1.758010
 C         0.903298         2.221164         1.457978
 C         2.147113         1.459279         1.091557
 O         1.881917         0.755353        -0.160930
 C         1.011337        -0.149579         0.804308
 C         0.222881        -1.139950         0.104422
 C         1.632535         0.256594         2.071985
 O         1.961463        -0.491129         3.250069
 H        -1.486000         1.602951         3.029380
 H        -1.951672         0.813952         1.511579
 H        -1.176587        -0.144863         2.883754
 H         0.505355         2.895372         0.760034
 H         1.085700         2.651546         2.470920
 H         3.158823         2.259019         1.181504
 H        -0.523388        -1.597562         0.761659
 H        -0.376596        -0.688261        -0.618253
 H         0.833194        -1.786358        -0.474098
 H         2.882885        -0.875271         3.179686
