19
Iteration:  1851
 C        -1.179394         0.746251         2.179689
 C         0.247367         0.907117         1.764489
 C         0.862135         2.289012         1.534917
 C         2.199202         1.435637         1.182285
 O         1.842654         0.759301        -0.033156
 C         0.913117        -0.038557         0.744277
 C         0.212476        -1.205342         0.176927
 C         1.567247         0.240411         2.086908
 O         2.197648        -0.530924         3.091590
 H        -1.396283         1.140802         3.154610
 H        -1.835088         1.003317         1.302171
 H        -1.555762        -0.315402         2.101244
 H         0.466660         2.786376         0.664453
 H         0.927755         3.004335         2.414455
 H         3.214518         1.962592         1.204751
 H        -0.354158        -1.712142         0.985894
 H        -0.338073        -0.878124        -0.708410
 H         0.989854        -1.877652        -0.244470
 H         1.938222        -0.024488         3.869667
