19
Iteration:  3589charge 0 multiplicity 1
 C        -1.249554         0.826755         2.229807
 C         0.168346         0.971676         1.736210
 C         0.935879         2.302761         1.491134
 C         2.144080         1.508211         1.128182
 O         1.785472         0.749098        -0.066572
 C         0.953370        -0.040389         0.814091
 C         0.501102        -1.257300         0.281105
 C         1.492171         0.262507         2.085592
 O         2.104789        -0.658947         3.002691
 H        -1.278466         0.849638         3.264683
 H        -1.844543         1.738708         1.908191
 H        -1.920255         0.066824         1.899638
 H         0.564923         3.054318         0.674327
 H         1.097486         2.865066         2.537574
 H         3.220388         1.654818         0.980386
 H         0.404235        -2.155577         0.939253
 H        -0.445159        -1.200412        -0.117030
 H         1.169649        -1.605951        -0.498768
 H         2.002466        -0.363283         3.946225
