19
Iteration:  2008charge 0 multiplicity 1
 C        -1.103902         0.740612         2.430701
 C         0.206518         1.042226         1.772225
 C         0.912507         2.334461         1.595509
 C         2.181606         1.458458         1.194077
 O         1.877962         0.800214        -0.064742
 C         0.937438        -0.054686         0.650076
 C         0.370712        -1.330757         0.084234
 C         1.504894         0.315740         2.019409
 O         1.970115        -0.638021         2.959412
 H        -2.007219         0.858341         1.628750
 H        -1.203732        -0.298430         2.797078
 H        -1.265518         1.440502         3.269387
 H         0.529520         3.049868         0.826795
 H         1.115681         2.861175         2.529198
 H         3.151520         1.740079         1.408635
 H        -0.267603        -1.551552         0.925299
 H        -0.429122        -1.306343        -0.790724
 H         1.128113        -2.032857         0.000229
 H         2.121520        -0.187872         3.834786
