19
Iteration:  1122charge 0 multiplicity 1
 C        -1.218929         0.704730         2.202844
 C         0.202264         0.935585         1.862038
 C         0.939229         2.318623         1.581758
 C         2.162670         1.392150         1.208065
 O         1.829451         0.820807        -0.060519
 C         0.984486        -0.029688         0.785669
 C         0.132478        -1.025156         0.078512
 C         1.608281         0.178453         2.072611
 O         2.205860        -0.715824         3.006078
 H        -1.517220         1.734065         2.475098
 H        -1.898147         0.371844         1.460371
 H        -1.310842         0.146468         3.094765
 H         0.680493         3.063942         0.800731
 H         0.961189         2.743261         2.596409
 H         3.170349         1.957747         1.133900
 H        -0.712671        -1.355683         0.675610
 H        -0.098989        -0.699368        -1.003898
 H         0.774972        -1.939932         0.002979
 H         2.226797        -0.167675         3.846314
