19
Iteration:  4142charge 0 multiplicity 1
 C        -1.016026         0.663351         2.506738
 C         0.249774         0.983154         1.707731
 C         0.934233         2.373545         1.532367
 C         2.140820         1.447480         1.144474
 O         1.825821         0.689772        -0.083333
 C         0.990207        -0.026574         0.694083
 C         0.324594        -1.225312         0.070463
 C         1.580394         0.260770         1.908576
 O         1.879154        -0.492468         3.149893
 H        -0.796313         1.051851         3.438150
 H        -1.917257         1.126487         2.064508
 H        -1.092669        -0.442774         2.573119
 H         0.530141         2.828277         0.608288
 H         0.942014         3.046572         2.433806
 H         3.219720         1.613358         0.980183
 H        -0.196994        -1.719231         0.947025
 H        -0.256502        -1.119346        -0.917833
 H         1.200983        -1.873368        -0.038675
 H         1.197174        -0.143035         3.778717
