19
Iteration:  1458
 C        -1.142629         0.681320         2.298125
 C         0.213563         0.883542         1.726816
 C         0.943556         2.272185         1.493717
 C         2.200713         1.507210         1.219508
 O         1.890322         0.784355        -0.067176
 C         0.944884        -0.071794         0.737924
 C         0.232587        -1.188886         0.157774
 C         1.611928         0.264264         2.033905
 O         1.988894        -0.491386         3.071735
 H        -1.966456         0.769618         1.544336
 H        -1.131499        -0.388881         2.594494
 H        -1.231746         1.210492         3.249367
 H         0.768455         2.932648         0.632815
 H         0.882298         2.662356         2.514377
 H         3.202750         1.828990         1.315441
 H        -0.195587        -1.875684         0.844608
 H        -0.577676        -0.705804        -0.475424
 H         0.874852        -1.851870        -0.551418
 H         1.815110        -0.199529         3.951501
