19
Iteration:  4385charge 0 multiplicity 1
 C        -1.062960         0.589322         2.453759
 C         0.204993         1.019089         1.717532
 C         0.982203         2.311856         1.414714
 C         2.113659         1.445190         1.206062
 O         1.850812         0.704517        -0.051205
 C         0.936328        -0.016328         0.747894
 C         0.307336        -1.219766        -0.012944
 C         1.546872         0.213562         2.019710
 O         1.969647        -0.444804         3.154470
 H        -1.052083         1.109421         3.406274
 H        -2.079908         0.863226         2.012103
 H        -1.015369        -0.468488         2.679675
 H         0.757668         3.016290         0.532807
 H         0.995560         2.960370         2.300815
 H         3.165276         1.786200         1.301209
 H        -0.553296        -1.629999         0.468998
 H         0.011549        -0.765885        -0.924731
 H         0.994065        -2.047680        -0.212822
 H         1.865756         0.145357         3.931331
