19
Iteration:  2869
 C        -1.309002         0.674435         2.275969
 C         0.129870         0.995859         1.724035
 C         1.071418         2.362145         1.536102
 C         2.201330         1.364141         1.149193
 O         1.862464         0.654102        -0.031393
 C         0.938244        -0.060238         0.739137
 C         0.265104        -1.218075         0.131306
 C         1.545158         0.301379         2.099970
 O         2.122953        -0.382583         3.101351
 H        -1.193089         0.771048         3.358711
 H        -2.037378         1.472422         1.959115
 H        -1.804852        -0.329071         1.969052
 H         0.721299         3.140708         0.746202
 H         1.066732         2.915120         2.474769
 H         3.242155         1.871488         1.256198
 H        -0.209213        -1.727379         0.989157
 H        -0.501908        -0.921199        -0.697882
 H         1.000821        -2.039401        -0.188613
 H         2.406305        -1.286562         2.858981
