19
Iteration:  4945
 C        -1.105712         0.683669         2.455092
 C         0.219980         0.959786         1.818296
 C         0.990209         2.329923         1.530236
 C         2.146007         1.576392         1.014652
 O         1.814685         0.783456        -0.121734
 C         0.890230         0.007897         0.748937
 C         0.522348        -1.341972         0.126656
 C         1.554998         0.318306         2.031468
 O         1.811677        -0.556499         3.111454
 H        -1.025982         0.867231         3.591789
 H        -1.889417         1.408693         1.987943
 H        -1.576738        -0.301033         2.448005
 H         0.337967         2.848468         0.768858
 H         1.304890         2.775107         2.471039
 H         3.247052         1.980924         0.975364
 H         0.103918        -1.350687        -0.900258
 H         1.234571        -2.035661         0.260497
 H        -0.261862        -1.747433         0.765648
 H         2.436171        -1.233732         2.800779
