19
Iteration:  4374charge 0 multiplicity 1
 C        -0.954574         0.635581         2.472040
 C         0.258834         0.923355         1.742343
 C         0.824130         2.322807         1.375963
 C         2.218768         1.425636         1.179268
 O         1.883860         0.729964         0.020975
 C         0.867593        -0.087699         0.728021
 C         0.307323        -1.191447        -0.021840
 C         1.565568         0.332042         2.078470
 O         1.881751        -0.490451         3.112090
 H        -0.932123         1.119648         3.433125
 H        -1.807678         1.065809         1.857250
 H        -1.182716        -0.398887         2.660284
 H         0.534117         2.854978         0.406611
 H         1.028410         2.939237         2.259771
 H         3.186562         1.950958         1.062625
 H        -0.449046        -1.711751         0.531826
 H        -0.182504        -0.876034        -0.899712
 H         1.095462        -1.868532        -0.342019
 H         1.963818         0.007283         3.963036
