19
Iteration:  2945
 C        -0.973873         0.762771         2.480956
 C         0.198764         0.987860         1.699509
 C         0.922882         2.392756         1.480608
 C         2.128745         1.411630         1.137378
 O         1.893749         0.658360        -0.059707
 C         0.889897        -0.010976         0.727422
 C         0.414190        -1.318339         0.146131
 C         1.454225         0.358108         2.001680
 O         1.808921        -0.506245         3.095708
 H        -0.842218         1.182863         3.474358
 H        -1.852212         1.179130         1.982756
 H        -1.174455        -0.349394         2.578175
 H         0.728590         3.143197         0.778209
 H         1.145722         2.917633         2.383978
 H         3.255857         1.727143         1.152968
 H        -0.013307        -1.911625         0.898095
 H        -0.176132        -1.164293        -0.720017
 H         1.329698        -1.849456        -0.151608
 H         2.481129        -1.068874         2.673610
