19
Iteration:  2068
 C        -1.179254         0.689617         2.177132
 C         0.274332         1.035705         1.921958
 C         0.873445         2.295131         1.531298
 C         2.190905         1.432790         1.189205
 O         1.840614         0.768203        -0.045489
 C         0.868445        -0.089760         0.797914
 C         0.146514        -1.099459         0.080874
 C         1.615351         0.195031         2.010733
 O         2.228361        -0.622551         3.079533
 H        -1.538525         0.452736         1.189755
 H        -1.390086        -0.161147         2.878302
 H        -1.833972         1.531920         2.420816
 H         0.445907         2.854941         0.669429
 H         1.043636         2.930004         2.469924
 H         3.176758         2.097348         1.384575
 H        -0.556458        -1.654756         0.826987
 H        -0.316616        -0.558899        -0.696349
 H         0.761913        -2.013052        -0.394187
 H         2.196193        -0.083569         3.910156
