19
Iteration:   596charge 0 multiplicity 1
 C        -1.076897         0.730089         2.422025
 C         0.233575         0.998170         1.861887
 C         0.855321         2.264589         1.391613
 C         2.164515         1.401479         1.142326
 O         1.951635         0.744108        -0.131394
 C         0.955012        -0.029138         0.704491
 C         0.337985        -1.274855         0.151215
 C         1.538491         0.306730         2.036991
 O         1.940950        -0.530543         3.101587
 H        -0.987603         0.376450         3.448539
 H        -1.651624         1.614476         2.429276
 H        -1.730147         0.054723         1.907007
 H         0.470599         2.784974         0.462193
 H         1.022695         3.016649         2.155185
 H         3.058167         1.993530         1.221848
 H        -0.274460        -1.562544         0.945529
 H        -0.382283        -1.034704        -0.596375
 H         0.999256        -2.197087        -0.214775
 H         1.663182         0.009748         3.897395
