19
Iteration:   657
 C        -1.066216         0.799200         2.529478
 C         0.202513         0.939351         1.764247
 C         0.939303         2.323877         1.534916
 C         2.242600         1.499422         1.162884
 O         1.885717         0.701421        -0.119694
 C         0.860237        -0.048683         0.615539
 C         0.479602        -1.381814         0.148483
 C         1.522090         0.259371         1.916970
 O         1.817496        -0.482073         3.048352
 H        -0.918755         0.500351         3.599024
 H        -1.504163         1.838556         2.581741
 H        -1.714247        -0.074862         2.169523
 H         0.661548         2.861798         0.642887
 H         0.769887         2.898036         2.472760
 H         3.187959         2.034755         1.164753
 H         0.066016        -1.835741         1.168313
 H        -0.349118        -1.379747        -0.576358
 H         1.260455        -1.954219        -0.216015
 H         1.683112         0.151038         3.761698
