19
Iteration:  2743
 C        -1.019165         0.719396         2.511951
 C         0.206144         1.008026         1.734478
 C         0.974700         2.292184         1.485982
 C         2.230663         1.443181         1.162812
 O         1.824375         0.734066        -0.116873
 C         0.882242         0.035171         0.691657
 C         0.383813        -1.261348         0.061229
 C         1.574836         0.259778         2.012280
 O         1.829680        -0.483900         3.138481
 H        -1.924066         1.387725         2.372447
 H        -1.390947        -0.252890         2.257187
 H        -0.683189         0.760281         3.527369
 H         0.644620         3.000478         0.759297
 H         1.091384         2.747429         2.445034
 H         3.402478         1.809911         1.106512
 H        -0.106433        -1.652108         0.918626
 H        -0.310349        -1.281754        -0.747397
 H         1.191990        -1.902833        -0.227778
 H         1.374706        -1.324565         3.026131
