19
Iteration:  3828
 C        -1.280973         0.805063         2.181391
 C         0.177253         0.933781         1.747936
 C         0.872155         2.216048         1.518638
 C         2.196155         1.438912         1.267873
 O         1.841169         0.757890        -0.070995
 C         0.903052         0.033941         0.733871
 C         0.326432        -1.216289         0.312551
 C         1.605898         0.282805         1.994485
 O         2.171402        -0.623923         2.986212
 H        -1.522810         0.718456         3.325141
 H        -1.856256         1.694893         1.899601
 H        -1.838670        -0.027253         1.850286
 H         0.610335         2.898724         0.586959
 H         0.952244         2.846265         2.456289
 H         3.185448         1.910438         1.423780
 H         0.142580        -1.817805         1.286816
 H        -0.578969        -1.208701        -0.251698
 H         1.093356        -1.736541        -0.323850
 H         2.574861        -0.117003         3.724690
