19
Iteration:  1676charge 0 multiplicity 1
 C        -1.352387         0.681517         2.196811
 C         0.256844         0.915451         1.867633
 C         0.915074         2.208050         1.433241
 C         2.183823         1.490282         1.126722
 O         1.818113         0.694173        -0.095881
 C         0.964018        -0.113281         0.821310
 C         0.275866        -1.122933         0.049496
 C         1.616084         0.234883         2.153031
 O         2.200500        -0.425210         3.189992
 H        -1.452495         0.517947         3.287687
 H        -1.869138         1.641637         2.049152
 H        -1.723962        -0.225303         1.656264
 H         0.542875         2.703268         0.503977
 H         0.960725         3.057663         2.228134
 H         3.172993         1.858952         1.049426
 H        -0.363744        -1.687301         0.669634
 H        -0.420003        -0.656709        -0.637497
 H         1.107907        -1.737157        -0.481428
 H         2.003813        -0.067657         4.105919
