19
Iteration:  1912charge 0 multiplicity 1
 C        -1.123742         0.672319         2.339117
 C         0.188739         0.923776         1.688749
 C         0.902222         2.271768         1.532479
 C         2.144032         1.425878         1.237997
 O         1.922399         0.763846        -0.106322
 C         0.947593        -0.029411         0.683442
 C         0.229959        -1.164904         0.153471
 C         1.560925         0.291427         2.047738
 O         2.051464        -0.561224         3.096180
 H        -1.653679         1.590597         2.548382
 H        -1.775395         0.115983         1.761102
 H        -0.803074         0.189708         3.267002
 H         0.710546         2.935996         0.604262
 H         1.034470         2.903564         2.398432
 H         3.041055         2.009736         1.371575
 H        -0.288893        -1.767600         0.829076
 H        -0.561653        -0.897542        -0.605475
 H         1.073055        -1.801897        -0.364508
 H         2.007199         0.025355         3.862182
