19
Iteration:  3618charge 0 multiplicity 1
 C        -1.230107         0.843462         2.198081
 C         0.211265         0.919001         1.816947
 C         0.871044         2.289581         1.504555
 C         2.181045         1.453471         1.187016
 O         1.875378         0.839692        -0.025911
 C         0.860535        -0.037901         0.791941
 C         0.332916        -1.392380         0.223878
 C         1.585340         0.277474         2.020663
 O         2.187517        -0.526322         3.013112
 H        -1.460184         1.045082         3.357489
 H        -1.582291         1.719311         1.712892
 H        -1.852686        -0.015050         1.842811
 H         0.461295         2.852167         0.754240
 H         0.895817         2.806552         2.403358
 H         3.292740         1.573236         1.224016
 H        -0.010535        -2.071827         0.967258
 H        -0.531023        -1.286547        -0.610213
 H         1.078913        -1.914737        -0.381004
 H         1.527466        -0.707694         3.727339
