19
Iteration:  4200charge 0 multiplicity 1
 C        -1.057799         0.687067         2.360454
 C         0.191481         0.985397         1.798374
 C         0.902864         2.279251         1.464447
 C         2.138199         1.419630         1.211192
 O         1.897184         0.681620        -0.098791
 C         0.937764        -0.033638         0.726041
 C         0.223758        -1.153432         0.070355
 C         1.477501         0.291021         2.093394
 O         2.101129        -0.492638         3.066444
 H        -1.309908         1.402156         3.174831
 H        -1.947506         0.607982         1.706526
 H        -0.898553        -0.250242         2.829366
 H         0.555155         2.923647         0.659129
 H         0.968756         2.853761         2.348577
 H         3.133196         1.798388         1.348355
 H        -0.628569        -1.690449         0.485803
 H        -0.059465        -1.061000        -0.978877
 H         1.006598        -2.031871         0.049008
 H         2.004338        -0.038176         3.910075
