19
Iteration:  2026charge 0 multiplicity 1
 C        -1.175950         0.704402         2.318016
 C         0.172412         0.946354         1.698722
 C         0.918332         2.318660         1.531285
 C         2.171402         1.520608         1.248554
 O         1.919038         0.739835        -0.044798
 C         0.908589         0.066737         0.736126
 C         0.243440        -1.164223         0.202514
 C         1.589131         0.189130         2.037328
 O         2.088424        -0.651733         2.957921
 H        -1.975457         0.497645         1.657841
 H        -1.182930        -0.230872         2.950569
 H        -1.411774         1.563233         2.954713
 H         0.558813         3.017160         0.799830
 H         0.992787         2.717892         2.558043
 H         3.175674         1.954795         0.986076
 H        -0.567681        -1.719191         0.801782
 H        -0.174225        -0.837028        -0.709172
 H         1.000935        -1.962582         0.008663
 H         2.100751        -0.153099         3.814637
