19
Iteration:   977charge 0 multiplicity 1
 C        -1.193388         0.710715         2.371992
 C         0.231563         0.976005         1.772712
 C         1.012239         2.369990         1.589426
 C         2.214792         1.423061         1.237949
 O         1.802998         0.834069        -0.044577
 C         0.933151        -0.004340         0.691835
 C         0.314567        -1.267926         0.061299
 C         1.522917         0.235747         2.029571
 O         2.042810        -0.638542         2.970990
 H        -1.147444         0.057456         3.258341
 H        -1.571722         1.703364         2.683700
 H        -2.061785         0.448456         1.708172
 H         0.626104         3.111192         0.793206
 H         1.102844         2.910885         2.524473
 H         3.272306         1.637529         1.156962
 H        -0.044280        -1.950020         0.818655
 H        -0.515581        -0.815077        -0.516918
 H         1.111461        -1.980032        -0.456378
 H         1.826653        -0.331585         3.853442
