19
Iteration:  4097charge 0 multiplicity 1
 C        -1.180945         0.836137         2.371558
 C         0.224315         0.932383         1.745977
 C         0.855436         2.323627         1.441162
 C         2.211231         1.509094         1.271714
 O         1.851555         0.709439        -0.093438
 C         0.921862        -0.005849         0.724440
 C         0.346130        -1.284498         0.162344
 C         1.548991         0.215627         2.015545
 O         2.087730        -0.587976         3.031284
 H        -1.037406         0.978405         3.394711
 H        -1.928036         1.522699         1.960596
 H        -1.543007        -0.221966         2.241293
 H         0.599978         2.880647         0.531187
 H         0.839844         2.950208         2.379385
 H         3.133377         2.129943         1.285785
 H        -0.040449        -1.936544         0.996232
 H        -0.582094        -1.078040        -0.495137
 H         1.026239        -1.924600        -0.359618
 H         1.943031        -0.325223         3.970414
