19
Iteration:   687charge 0 multiplicity 1
 C        -1.156562         0.762899         2.360065
 C         0.180560         0.967417         1.646269
 C         0.916920         2.365492         1.477992
 C         2.174455         1.426134         1.208788
 O         1.855839         0.774608        -0.137188
 C         0.928184        -0.092125         0.754881
 C         0.348046        -1.302155         0.234979
 C         1.500683         0.300869         2.032852
 O         2.110764        -0.556814         3.050444
 H        -0.856068         0.684395         3.416373
 H        -1.869207         1.591015         2.100351
 H        -1.722693        -0.137076         2.077597
 H         0.727038         3.021424         0.631560
 H         0.762303         2.878874         2.480175
 H         3.305632         1.750582         1.414706
 H        -0.240069        -1.742459         1.118089
 H        -0.402152        -1.036566        -0.575477
 H         0.987825        -2.089092        -0.102683
 H         1.699133        -0.306980         3.936063
