19
Iteration:  1149
 C        -1.179654         0.729690         2.288684
 C         0.157307         0.965263         1.788892
 C         0.971539         2.288438         1.602274
 C         2.239192         1.437376         1.321454
 O         1.981206         0.781701         0.032511
 C         0.885591         0.010708         0.751681
 C         0.118461        -1.165513         0.115149
 C         1.526081         0.255011         2.038900
 O         2.139289        -0.638205         2.801920
 H        -1.660257         1.628785         2.692859
 H        -1.901479         0.411119         1.467243
 H        -1.154118        -0.031797         3.129926
 H         0.808137         2.805257         0.663870
 H         0.814890         2.709577         2.613161
 H         3.164399         1.965247         1.281127
 H        -0.627433        -1.539627         0.854981
 H        -0.350291        -1.007332        -0.808150
 H         0.873739        -1.928742        -0.170460
 H         2.052035        -0.320567         3.744948
