19
Iteration:   659charge 0 multiplicity 1
 C        -1.074456         0.797116         2.531848
 C         0.208392         0.944036         1.757792
 C         0.934196         2.305053         1.536473
 C         2.255585         1.490073         1.187140
 O         1.893650         0.709339        -0.103333
 C         0.844045        -0.033589         0.605238
 C         0.458368        -1.383499         0.159117
 C         1.518045         0.253366         1.908732
 O         1.834887        -0.471971         3.034952
 H        -0.921126         0.500823         3.576739
 H        -1.497897         1.807102         2.512128
 H        -1.729547        -0.051603         2.163175
 H         0.675033         2.831166         0.598262
 H         0.810352         2.886615         2.448585
 H         3.098035         2.080219         1.128298
 H         0.085525        -1.799371         1.135377
 H        -0.332287        -1.426588        -0.558518
 H         1.300884        -2.037680        -0.232272
 H         1.680155         0.179728         3.784831
