19
Iteration:  4214
 C        -1.257445         0.657028         2.404325
 C         0.179793         0.976798         1.708578
 C         0.926174         2.299962         1.443893
 C         2.234893         1.467899         1.225850
 O         1.921902         0.692368         0.055867
 C         0.863393        -0.017453         0.732322
 C         0.206282        -1.248460         0.056274
 C         1.587995         0.300747         2.059613
 O         2.175201        -0.500266         2.985633
 H        -1.481007         1.480618         3.212244
 H        -1.963172         0.673468         1.560675
 H        -1.389562        -0.342737         2.902418
 H         0.573337         2.684902         0.485819
 H         1.027958         2.999023         2.286219
 H         3.255167         1.934691         1.168030
 H        -0.623541        -1.355274         0.771162
 H        -0.169242        -0.797832        -0.865050
 H         0.895468        -2.132129         0.033269
 H         1.996605        -0.217989         3.918798
