19
Iteration:  2433charge 0 multiplicity 1
 C        -1.194114         0.727433         2.258957
 C         0.203783         0.951716         1.860432
 C         0.944105         2.274189         1.486506
 C         2.174506         1.513365         1.153063
 O         1.826168         0.691004        -0.053825
 C         0.984199        -0.086707         0.824796
 C         0.208764        -1.198611         0.159299
 C         1.701269         0.268376         2.057747
 O         2.052383        -0.538243         3.002781
 H        -1.459001         1.260644         3.147288
 H        -1.798352         0.970353         1.375776
 H        -1.415699        -0.330006         2.429008
 H         0.610243         2.956966         0.702229
 H         0.987901         2.914030         2.369528
 H         3.278398         2.017269         1.079514
 H        -0.636283        -1.470642         0.759016
 H        -0.344044        -0.819445        -0.653831
 H         0.800787        -2.028545        -0.130748
 H         2.213693        -0.077216         3.839723
