19
Iteration:  1099charge 0 multiplicity 1
 C        -1.137659         0.749454         2.244532
 C         0.282582         0.909462         1.931780
 C         0.975399         2.275251         1.608657
 C         2.237175         1.453707         1.189265
 O         1.698489         0.784218        -0.024332
 C         0.914959         0.015368         0.727865
 C         0.179088        -1.142899        -0.033744
 C         1.695793         0.222755         2.044142
 O         2.080633        -0.653431         3.052467
 H        -1.573663         1.728611         2.562441
 H        -1.737696         0.463358         1.409001
 H        -1.273592         0.013263         3.018478
 H         0.200931         2.877825         0.989372
 H         1.161963         2.709083         2.594287
 H         3.271313         1.948387         1.228319
 H        -0.650408        -1.537268         0.469562
 H        -0.091731        -0.644936        -1.099454
 H         0.873913        -2.083677        -0.324776
 H         2.147445        -0.129668         3.865635
