19
Iteration:  4609charge 0 multiplicity 1
 C        -1.103633         0.590710         2.432463
 C         0.206121         0.911494         1.680833
 C         0.902482         2.336863         1.440561
 C         2.148166         1.474540         1.273643
 O         1.877894         0.750147        -0.055348
 C         0.897571        -0.054045         0.712278
 C         0.118549        -1.283838        -0.009051
 C         1.585248         0.259333         2.055036
 O         2.218528        -0.322151         3.159667
 H        -1.326759         1.354592         3.272239
 H        -1.862415         0.895063         1.597544
 H        -1.393966        -0.546072         2.696776
 H         0.649098         3.047101         0.575262
 H         0.905366         2.979392         2.493336
 H         3.135218         1.809943         1.602593
 H         0.372984        -1.175441        -1.058296
 H         0.402466        -2.388755         0.322246
 H        -0.870701        -1.152440         0.204486
 H         1.961598        -1.240429         3.307576
