19
Iteration:   667
 C        -1.088472         0.778136         2.516650
 C         0.222226         0.965420         1.697395
 C         0.913537         2.211575         1.479120
 C         2.220388         1.427550         1.257202
 O         1.917344         0.782922        -0.036215
 C         0.844738         0.037717         0.589974
 C         0.386575        -1.402711         0.188909
 C         1.517301         0.232341         1.936687
 O         1.923103        -0.440141         2.994735
 H        -0.876550         0.592594         3.598309
 H        -1.716349         1.710272         2.312657
 H        -1.853111         0.085934         2.027692
 H         0.604274         2.823385         0.649428
 H         1.145313         2.881177         2.356605
 H         3.129508         2.058497         1.079053
 H         0.001836        -1.955088         1.183516
 H        -0.409298        -1.543298        -0.582386
 H         1.191147        -1.966253        -0.061843
 H         1.699826         0.069970         3.809685
