19
Iteration:  4168
 C        -1.068258         0.645192         2.458586
 C         0.284931         0.915381         1.764662
 C         1.047165         2.212231         1.475115
 C         2.245451         1.543358         1.101169
 O         1.770094         0.786837        -0.103235
 C         0.929187        -0.041227         0.734415
 C         0.247706        -1.275568        -0.008963
 C         1.635325         0.308411         2.069909
 O         1.827344        -0.461131         3.168450
 H        -0.964939         1.225362         3.439127
 H        -1.983024         0.743773         1.819042
 H        -0.983659        -0.375739         2.777845
 H         0.624100         2.835242         0.700689
 H         1.000192         2.618502         2.400277
 H         3.112380         2.051929         0.729904
 H        -0.511644        -1.792847         0.594561
 H        -0.076658        -1.027091        -0.990551
 H         1.151420        -2.021143         0.060093
 H         1.768845         0.082105         3.994678
