19
Iteration:  1468
 C        -1.098255         0.617375         2.267746
 C         0.304077         0.936266         1.732989
 C         0.870638         2.345054         1.538542
 C         2.181634         1.413218         1.145784
 O         1.844086         0.760623        -0.047814
 C         1.029816        -0.097149         0.782618
 C         0.205145        -1.162811         0.099755
 C         1.577807         0.258432         2.082059
 O         2.036798        -0.523309         3.126694
 H        -1.759363         1.138698         1.519905
 H        -1.481623        -0.412247         2.323267
 H        -1.352435         1.144951         3.217249
 H         0.564519         2.934645         0.694388
 H         0.926906         3.113143         2.352989
 H         3.053690         1.979564         1.094357
 H        -0.415990        -1.691332         0.759871
 H        -0.552694        -0.709815        -0.557210
 H         0.895853        -1.817297        -0.599162
 H         1.745595         0.031801         3.852494
