19
Iteration:  3321
 C        -1.138450         0.753397         2.416100
 C         0.208758         0.944012         1.681920
 C         1.011872         2.361219         1.469613
 C         2.191137         1.442901         1.179799
 O         1.799076         0.785851        -0.038750
 C         0.933798        -0.112888         0.705738
 C         0.393364        -1.324309         0.115915
 C         1.592542         0.340626         2.032406
 O         1.849640        -0.533566         3.076444
 H        -1.220846         1.125122         3.533199
 H        -1.943139         1.312698         2.024274
 H        -1.317708        -0.362730         2.379122
 H         0.679372         3.074345         0.628942
 H         1.296616         2.756372         2.560650
 H         3.219257         1.779262         1.156883
 H         0.304012        -2.090112         0.871214
 H        -0.582585        -1.294988        -0.428815
 H         1.013152        -1.793222        -0.601073
 H         2.405954        -0.159216         3.759519
