19
Iteration:  3411charge 0 multiplicity 1
 C        -1.171169         0.721059         2.259466
 C         0.215151         0.920702         1.809847
 C         0.954897         2.293512         1.467971
 C         2.196503         1.450972         1.211096
 O         1.844563         0.719724        -0.080499
 C         0.874462        -0.005113         0.792997
 C         0.284767        -1.210677         0.150343
 C         1.553441         0.282000         2.139262
 O         2.132612        -0.466993         3.063485
 H        -1.612510         1.231040         3.182076
 H        -1.882285         0.977971         1.408870
 H        -1.253477        -0.308066         2.419743
 H         0.471334         2.759688         0.570416
 H         0.781528         2.993199         2.373159
 H         3.228184         1.884484         1.174463
 H        -0.625315        -1.491793         0.563680
 H         0.165613        -0.877709        -0.899652
 H         0.998541        -2.028272         0.098390
 H         1.764458        -1.366091         3.126534
