19
Iteration:   223charge 0 multiplicity 1
 C        -1.004767         0.795919         2.443588
 C         0.252696         1.004285         1.796504
 C         0.915326         2.321182         1.295786
 C         2.187128         1.431749         1.149043
 O         1.778632         0.759436        -0.054765
 C         0.899299        -0.065920         0.770151
 C         0.422927        -1.328815         0.052110
 C         1.599778         0.306870         2.057190
 O         1.896639        -0.518394         3.168655
 H        -0.995702         1.148875         3.484282
 H        -1.815991         1.078139         1.849993
 H        -1.337407        -0.279275         2.604867
 H         0.552538         2.673449         0.344028
 H         0.943292         3.062331         2.120792
 H         3.242270         1.872470         1.208741
 H        -0.075472        -2.076640         0.791535
 H        -0.370146        -1.135345        -0.611738
 H         1.313970        -1.890947        -0.331359
 H         1.029487        -0.645759         3.655611
