19
Iteration:   773charge 0 multiplicity 1
 C        -1.209524         0.751838         2.311240
 C         0.178154         0.968100         1.713243
 C         0.883199         2.237459         1.588031
 C         2.221522         1.474621         1.238694
 O         1.950181         0.702028        -0.085702
 C         0.876684        -0.008531         0.703404
 C         0.209187        -1.277193         0.138078
 C         1.543669         0.311680         2.055838
 O         2.139386        -0.516638         2.989449
 H        -1.741711         1.676227         2.461467
 H        -1.940857         0.195122         1.774681
 H        -1.017702         0.389590         3.277663
 H         0.506182         2.948104         0.837926
 H         0.941561         2.628054         2.647696
 H         3.341187         1.707441         1.537678
 H        -0.352564        -1.833020         0.918732
 H        -0.479310        -1.116360        -0.739267
 H         1.092347        -1.823826        -0.240846
 H         2.347588         0.006315         3.782250
