19
Iteration:   103charge 0 multiplicity 1
 C        -1.112339         0.749925         2.313997
 C         0.188815         0.955331         1.671354
 C         0.860422         2.325497         1.415536
 C         2.220053         1.454326         1.165023
 O         1.916497         0.771005        -0.048221
 C         0.924072        -0.121015         0.811557
 C         0.274185        -1.343313         0.203719
 C         1.539467         0.395360         2.069169
 O         2.018463        -0.543413         3.052483
 H        -1.132918         1.331802         3.283335
 H        -1.929068         1.137455         1.673505
 H        -1.356261        -0.362257         2.498378
 H         0.496095         2.905233         0.516460
 H         0.889376         2.807655         2.435978
 H         3.237091         1.882768         1.261159
 H        -0.383561        -1.868014         1.022137
 H        -0.327377        -1.033778        -0.617063
 H         1.070765        -1.993818        -0.164621
 H         2.301414        -0.200483         3.923052
