19
Iteration:  4413charge 0 multiplicity 1
 C        -1.156238         0.568330         2.312502
 C         0.241836         0.958899         1.767660
 C         0.978079         2.271538         1.592740
 C         2.202024         1.354818         1.136985
 O         1.860922         0.746265        -0.056806
 C         0.862984         0.022169         0.679655
 C         0.232220        -1.283265         0.047873
 C         1.559109         0.276717         2.054678
 O         2.093905        -0.313816         3.108600
 H        -1.390751         1.386105         3.033283
 H        -1.928857         0.731762         1.567772
 H        -1.246323        -0.496845         2.724550
 H         0.685740         3.118711         1.040318
 H         1.106840         2.664273         2.633272
 H         3.230519         1.636258         1.182255
 H        -0.826802        -1.391242         0.421423
 H         0.191350        -1.099501        -1.134620
 H         0.743778        -2.190543         0.350242
 H         1.682768        -0.062025         3.953576
