19
Iteration:  4853
 C        -1.134770         0.617137         2.235760
 C         0.273492         0.973559         1.849344
 C         0.854932         2.309368         1.545784
 C         2.202532         1.528574         1.143685
 O         1.840339         0.631828        -0.034116
 C         0.948201        -0.099887         0.822522
 C         0.177515        -1.173150         0.035827
 C         1.642573         0.296277         2.037281
 O         2.060575        -0.357818         3.133071
 H        -1.565600         1.150602         3.072412
 H        -1.735987         0.551459         1.354685
 H        -1.100649        -0.444392         2.635568
 H         0.364344         2.917434         0.787403
 H         1.191124         2.871607         2.452704
 H         3.167515         1.914699         1.263316
 H        -0.544274        -0.640664        -0.524413
 H         0.812852        -1.760179        -0.535589
 H        -0.416522        -1.857765         0.683926
 H         2.401452        -1.259229         2.902706
