19
Iteration:    86charge 0 multiplicity 1
 C        -1.170059         0.785563         2.458279
 C         0.148471         1.004943         1.662549
 C         0.931815         2.308467         1.392149
 C         2.143472         1.451183         1.307595
 O         1.918922         0.699634        -0.079187
 C         0.972835         0.049733         0.626882
 C         0.413396        -1.327971         0.283177
 C         1.481593         0.208370         1.983953
 O         1.973726        -0.525660         2.998055
 H        -0.999133         1.163503         3.467369
 H        -2.105053         1.152798         1.950801
 H        -1.290077        -0.248070         2.571298
 H         0.760946         2.838433         0.448991
 H         0.974253         3.001774         2.211007
 H         3.132179         1.836363         1.404243
 H         0.098881        -1.776101         1.153201
 H        -0.531488        -1.393066        -0.435481
 H         1.221520        -2.012397        -0.104995
 H         1.955227         0.129706         3.756018
