19
Iteration:  2965
 C        -1.113876         0.708863         2.491583
 C         0.203845         1.053992         1.716259
 C         0.974742         2.292510         1.455166
 C         2.237344         1.442068         1.227336
 O         1.915302         0.719447        -0.074509
 C         0.858196         0.019180         0.672566
 C         0.325603        -1.330682         0.096937
 C         1.519688         0.256331         1.971381
 O         1.898329        -0.412953         3.119855
 H        -1.157096         1.327171         3.330999
 H        -2.121692         0.688669         2.025811
 H        -0.981128        -0.323316         2.819415
 H         0.675897         2.966421         0.706774
 H         1.012764         2.960628         2.303570
 H         3.351445         1.855270         1.056853
 H        -0.199656        -1.816425         0.911598
 H        -0.270331        -1.259823        -0.726234
 H         1.140521        -2.001944        -0.088951
 H         2.019662        -1.354143         3.068281
