19
Iteration:  2063charge 0 multiplicity 1
 C        -1.194681         0.648555         2.175446
 C         0.305739         1.022375         1.935132
 C         0.905275         2.317906         1.514495
 C         2.194085         1.495477         1.239377
 O         1.823156         0.758472        -0.021129
 C         0.892381        -0.108530         0.777962
 C         0.147959        -1.116951         0.099863
 C         1.598563         0.166671         2.023341
 O         2.223111        -0.621755         3.051493
 H        -1.634566         0.489066         1.056796
 H        -1.396405        -0.051708         2.969535
 H        -1.806397         1.550145         2.421347
 H         0.487691         2.846306         0.639037
 H         0.993597         3.103078         2.251667
 H         3.096105         2.011023         1.166764
 H        -0.608773        -1.404591         0.752087
 H        -0.439414        -0.615759        -0.807913
 H         0.760474        -1.827577        -0.315441
 H         2.186881        -0.162832         3.910675
