19
Iteration:   302
 C        -1.180297         0.766594         2.196164
 C         0.144836         0.927487         1.666449
 C         0.950731         2.279510         1.412132
 C         2.185105         1.421233         1.169177
 O         1.815608         0.753716        -0.021520
 C         0.869242        -0.012841         0.779044
 C         0.315163        -1.288620         0.298754
 C         1.564756         0.328072         2.108270
 O         2.094704        -0.504422         3.111224
 H        -1.374999         0.926035         3.329265
 H        -1.892127         1.509409         1.782456
 H        -1.454209        -0.253520         1.998948
 H         0.676617         3.181227         0.754685
 H         1.000951         2.754749         2.391828
 H         3.142706         1.846425         1.253564
 H        -0.127816        -1.857497         1.101731
 H        -0.384837        -1.191100        -0.622200
 H         1.164557        -1.910147        -0.182545
 H         3.043834        -0.806920         2.911016
