19
Iteration:   647charge 0 multiplicity 1
 C        -1.035209         0.796237         2.556088
 C         0.223257         0.977235         1.714567
 C         0.921215         2.349683         1.476977
 C         2.163363         1.492687         1.080246
 O         1.835204         0.720858        -0.162508
 C         0.991710        -0.067596         0.701866
 C         0.489850        -1.365276         0.141010
 C         1.545876         0.291435         2.003573
 O         1.762283        -0.538217         3.097270
 H        -0.750623         0.501753         3.578170
 H        -1.701017         1.688019         2.648324
 H        -1.794683         0.076821         2.092704
 H         0.469570         3.105492         0.827163
 H         1.105725         2.856728         2.457493
 H         3.195740         1.589647         1.148615
 H         0.082013        -2.127144         0.913082
 H        -0.263935        -1.215390        -0.629275
 H         1.370839        -1.832211        -0.274926
 H         1.678124        -0.018251         3.888519
