19
Iteration:  2005
 C        -1.090418         0.755351         2.443843
 C         0.201106         1.040491         1.798930
 C         0.920467         2.344738         1.568109
 C         2.163102         1.435825         1.213862
 O         1.878722         0.825699        -0.083656
 C         0.948895        -0.034181         0.655046
 C         0.387060        -1.358148         0.071877
 C         1.500682         0.300946         2.033410
 O         1.942012        -0.618267         2.948007
 H        -1.933113         0.875039         1.698340
 H        -1.250301        -0.344908         2.727152
 H        -1.264410         1.420307         3.315305
 H         0.503742         3.017144         0.849988
 H         1.130212         2.782750         2.565306
 H         3.264133         1.665704         1.277557
 H        -0.294412        -1.703119         0.952600
 H        -0.343033        -1.259989        -0.724238
 H         1.136212        -2.141232        -0.035786
 H         2.106485        -0.206255         3.821590
