19
Iteration:  4988
 C        -1.164275         0.658211         2.380926
 C         0.153453         0.919764         1.706433
 C         0.888283         2.273757         1.460414
 C         2.181732         1.436885         1.226523
 O         1.872914         0.797500        -0.060239
 C         0.916173         0.038797         0.644677
 C         0.324894        -1.267898         0.143119
 C         1.555844         0.321451         2.060048
 O         2.051687        -0.477249         3.139617
 H        -1.067563         0.829372         3.505756
 H        -1.968107         1.370512         1.955674
 H        -1.507167        -0.360879         2.459161
 H         0.830781         2.914752         0.582445
 H         1.102116         2.683360         2.444414
 H         3.126583         2.182769         1.149293
 H        -0.350600        -1.094685        -0.748185
 H         1.117952        -1.955395        -0.032722
 H        -0.259104        -1.762817         0.969924
 H         2.464710        -1.252441         2.690426
