19
Iteration:  4178
 C        -1.035258         0.633259         2.459718
 C         0.225718         0.929952         1.720130
 C         0.930940         2.312848         1.530374
 C         2.268308         1.487951         1.069392
 O         1.757034         0.745765        -0.051029
 C         0.939059        -0.074078         0.727193
 C         0.298919        -1.220027         0.036428
 C         1.656248         0.258427         2.007803
 O         1.877121        -0.478184         3.170733
 H        -1.294503         1.350516         3.270872
 H        -1.896437         0.784246         1.763166
 H        -1.126722        -0.360892         2.835411
 H         0.673956         2.923943         0.678601
 H         1.129223         2.958037         2.296025
 H         3.261258         1.905948         1.019796
 H        -0.615626        -1.602787         0.529335
 H        -0.036814        -0.994370        -0.965836
 H         0.975992        -2.144590        -0.138329
 H         1.931570         0.197752         3.894300
