19
Iteration:  1399
 C        -1.156660         0.808950         2.412393
 C         0.235372         0.942258         1.772588
 C         0.946042         2.328691         1.507589
 C         2.247487         1.481720         1.085941
 O         1.792451         0.833106        -0.011254
 C         0.904675        -0.000397         0.745618
 C         0.543734        -1.292474         0.143987
 C         1.565775         0.300527         2.066700
 O         1.818497        -0.733875         2.955698
 H        -1.822728         0.079342         1.992916
 H        -1.107179         0.482719         3.466774
 H        -1.768683         1.735242         2.319294
 H         0.739663         2.987667         0.712434
 H         0.848308         3.016042         2.369056
 H         3.270690         1.909315         0.739015
 H         0.171135        -1.869874         1.073908
 H        -0.282194        -1.196672        -0.487435
 H         1.392646        -1.755023        -0.369497
 H         1.898942        -0.569768         3.958939
