19
Iteration:  4418charge 0 multiplicity 1
 C        -1.127735         0.605445         2.264462
 C         0.283479         0.928379         1.784433
 C         1.009396         2.253169         1.622231
 C         2.142399         1.427667         1.149695
 O         1.853528         0.739961        -0.037169
 C         0.819786        -0.042345         0.686088
 C         0.213174        -1.265041         0.079033
 C         1.574277         0.264370         2.016830
 O         2.115419        -0.326488         3.099357
 H        -1.367696         1.384492         2.998569
 H        -1.903636         0.682212         1.392690
 H        -1.228164        -0.393143         2.677520
 H         0.522176         3.073317         0.939499
 H         1.168662         2.658486         2.630316
 H         3.190375         1.784073         1.320199
 H        -0.829758        -1.361370         0.331921
 H         0.260218        -1.100137        -0.985053
 H         0.788132        -2.166408         0.382475
 H         1.486233         0.007595         3.791703
