19
Iteration:  2358charge 0 multiplicity 1
 C        -1.047514         0.886932         2.517640
 C         0.239700         0.913169         1.728634
 C         0.869178         2.262888         1.473109
 C         2.149992         1.585551         1.130077
 O         1.843016         0.717708        -0.150686
 C         0.964937         0.015383         0.699034
 C         0.471038        -1.328289         0.135749
 C         1.677264         0.213550         1.973089
 O         1.760555        -0.646022         3.120970
 H        -0.768476         0.855149         3.643190
 H        -1.598752         1.801103         2.423816
 H        -1.702033         0.067511         2.241841
 H         0.250565         2.988583         0.847546
 H         1.213223         2.909324         2.323693
 H         3.205240         2.063715         0.801637
 H         0.416626        -2.044841         0.938413
 H        -0.579044        -1.315311        -0.264369
 H         1.264834        -1.632191        -0.520808
 H         1.300676        -0.197399         3.853570
