19
Iteration:   838charge 0 multiplicity 1
 C        -1.002803         0.733591         2.502740
 C         0.231663         0.999580         1.718576
 C         0.899780         2.295802         1.514668
 C         2.205594         1.436729         1.113228
 O         1.853817         0.827431        -0.088212
 C         0.932790         0.011341         0.720739
 C         0.403357        -1.230182         0.102424
 C         1.528193         0.189508         1.958581
 O         1.819481        -0.617858         3.053218
 H        -2.022129         0.721769         2.031623
 H        -0.927918        -0.219832         3.028043
 H        -0.948961         1.489546         3.295687
 H         0.381436         2.960347         0.799372
 H         0.983746         2.852144         2.491421
 H         3.341883         1.807876         1.168771
 H         0.079241        -1.917146         0.858140
 H        -0.429865        -1.160970        -0.627860
 H         1.322789        -1.785901        -0.252745
 H         1.617518        -0.096621         3.894144
