19
Iteration:  2184charge 0 multiplicity 1
 C        -1.072830         0.763901         2.475437
 C         0.254968         0.997224         1.758278
 C         0.885467         2.331771         1.474893
 C         2.186756         1.482389         1.156349
 O         1.902114         0.823101        -0.056290
 C         0.894946         0.001848         0.664284
 C         0.368231        -1.263034         0.181020
 C         1.579290         0.184096         1.961007
 O         1.838852        -0.668226         2.996428
 H        -1.731000         1.692749         2.708573
 H        -1.606502        -0.058903         2.058619
 H        -0.773667         0.478055         3.499459
 H         0.485008         2.875773         0.581616
 H         1.054753         2.834411         2.436562
 H         3.160167         2.028697         1.321145
 H         0.093773        -1.818228         1.061357
 H        -0.302168        -1.326439        -0.787533
 H         1.211174        -1.952645         0.035377
 H         1.944481         0.029240         3.685814
