19
Iteration:  4812
 C        -1.199904         0.651774         2.244499
 C         0.215185         0.920769         1.706328
 C         0.929636         2.203195         1.509968
 C         2.174186         1.435198         1.226872
 O         1.819536         0.768457        -0.098061
 C         0.960130        -0.018124         0.671411
 C         0.219678        -1.149605         0.187585
 C         1.658020         0.232580         2.007831
 O         2.054642        -0.421982         3.224854
 H        -1.280347         1.218542         3.205438
 H        -2.106606         0.835725         1.572512
 H        -1.197356        -0.437055         2.478993
 H         0.543578         2.968712         0.739880
 H         0.859367         2.779661         2.435903
 H         3.240192         1.720411         1.139311
 H        -0.723187        -0.797898        -0.275282
 H         0.770910        -1.561791        -0.563152
 H        -0.044368        -1.847831         1.079430
 H         3.026345        -0.486853         3.216598
