19
Iteration:   896
 C        -1.142283         0.670388         2.332107
 C         0.239821         0.969174         1.789546
 C         0.936993         2.249993         1.474305
 C         2.200303         1.481184         1.190529
 O         1.777877         0.770860        -0.088208
 C         0.939414         0.009092         0.779060
 C         0.214353        -1.093559         0.072758
 C         1.610494         0.219992         2.111451
 O         2.100206        -0.631036         3.059339
 H        -1.685103         0.047758         1.672583
 H        -1.224409         0.369878         3.354540
 H        -1.699576         1.559821         2.181858
 H         0.473745         2.833925         0.671920
 H         0.903929         2.876046         2.429989
 H         3.247880         1.808137         1.223701
 H        -0.490218        -1.705883         0.796452
 H        -0.203608        -1.001124        -0.927593
 H         1.026548        -1.723252        -0.096729
 H         2.174939        -0.139829         3.867036
