19
Iteration:  4013
 C        -1.255386         0.754408         2.278498
 C         0.215259         0.939166         1.833103
 C         0.927128         2.277144         1.531034
 C         2.218009         1.511832         1.180018
 O         1.911968         0.787759        -0.047362
 C         0.916167        -0.063962         0.715579
 C         0.172105        -1.278211         0.189938
 C         1.649123         0.289197         2.071333
 O         2.109810        -0.591431         2.957749
 H        -1.692476         1.642745         2.851307
 H        -1.796214         0.579639         1.302993
 H        -1.319543        -0.191772         2.875279
 H         0.557844         2.922208         0.687972
 H         0.962167         2.892345         2.386020
 H         3.193714         2.062353         1.237752
 H        -0.275715        -1.748000         1.092549
 H        -0.540621        -1.084464        -0.601492
 H         1.007498        -1.891282        -0.129556
 H         2.013668        -0.241357         3.842335
