19
Iteration:   666charge 0 multiplicity 1
 C        -1.088710         0.778258         2.522073
 C         0.224992         0.965574         1.704173
 C         0.913260         2.218058         1.487770
 C         2.226286         1.431344         1.255663
 O         1.915563         0.772561        -0.042238
 C         0.840153         0.032812         0.589272
 C         0.396407        -1.401499         0.186419
 C         1.516528         0.233387         1.929260
 O         1.911426        -0.440001         2.998433
 H        -0.874114         0.574144         3.599759
 H        -1.693702         1.719618         2.311591
 H        -1.838188         0.097439         2.046725
 H         0.619799         2.812783         0.633034
 H         1.112898         2.894834         2.378309
 H         3.142630         2.115887         1.057443
 H         0.022033        -1.931348         1.172377
 H        -0.410996        -1.544697        -0.593344
 H         1.196720        -1.989658        -0.083958
 H         1.702700         0.076237         3.784098
