19
Iteration:  4224
 C        -1.327735         0.680817         2.342262
 C         0.172694         0.906628         1.789331
 C         0.933700         2.372306         1.339826
 C         2.199644         1.448896         1.239801
 O         1.926492         0.743815         0.037748
 C         0.915084        -0.062325         0.802811
 C         0.230482        -1.181660         0.163875
 C         1.641860         0.278531         2.038651
 O         2.213559        -0.559016         2.960390
 H        -1.552122         1.536219         3.140367
 H        -2.137986         0.852961         1.604110
 H        -1.425512        -0.305333         2.822683
 H         0.557107         3.083978         0.610236
 H         0.779332         2.880230         2.256396
 H         3.251447         1.835742         1.206554
 H        -0.687133        -1.618292         0.639953
 H        -0.247018        -0.908780        -0.794246
 H         0.700547        -2.208378        -0.167434
 H         1.907939        -0.185209         3.822037
