19
Iteration:  4018charge 0 multiplicity 1
 C        -1.271301         0.757257         2.264688
 C         0.210469         0.917702         1.826906
 C         0.933225         2.254971         1.554102
 C         2.269942         1.495824         1.185567
 O         1.897557         0.795387        -0.058450
 C         0.901344        -0.045116         0.730203
 C         0.169281        -1.295039         0.217373
 C         1.620729         0.337477         2.073170
 O         2.121608        -0.573776         2.936140
 H        -1.716360         1.552238         2.793149
 H        -1.640058         0.664451         1.258023
 H        -1.309435        -0.175843         2.813863
 H         0.536935         2.786832         0.673462
 H         0.996684         2.901437         2.512828
 H         3.215869         1.988192         1.333012
 H        -0.288983        -1.781986         1.068447
 H        -0.532413        -1.118254        -0.637986
 H         0.947310        -1.962542        -0.242202
 H         2.046121        -0.236004         3.865914
