19
Iteration:  1438charge 0 multiplicity 1
 C        -1.128925         0.682527         2.409474
 C         0.179325         0.998466         1.653595
 C         0.900994         2.358027         1.547356
 C         2.244574         1.388236         1.210560
 O         1.943754         0.787648        -0.030107
 C         0.899676         0.036902         0.619120
 C         0.320890        -1.265010         0.149591
 C         1.503606         0.246485         2.031401
 O         1.974594        -0.569106         3.028782
 H        -1.881893         0.389679         1.602777
 H        -1.132198        -0.143202         3.144016
 H        -1.299202         1.574248         2.971164
 H         0.580107         3.013424         0.614337
 H         1.058801         2.855361         2.498509
 H         3.195028         1.913146         1.316106
 H         0.164389        -1.857680         1.063365
 H        -0.715374        -1.368275        -0.384856
 H         1.063828        -1.845333        -0.445495
 H         1.792299        -0.132915         3.889733
