19
Iteration:  1281charge 0 multiplicity 1
 C        -1.138599         0.652055         2.315234
 C         0.271738         0.897246         1.788916
 C         0.875274         2.265717         1.456705
 C         2.205876         1.437836         1.203985
 O         1.839512         0.774865        -0.062513
 C         1.004264        -0.022343         0.752523
 C         0.178232        -1.002320         0.017739
 C         1.616037         0.203760         2.085773
 O         2.061127        -0.620250         3.141908
 H        -1.150893         0.269181         3.331313
 H        -1.676277         1.632536         2.434293
 H        -1.755438        -0.057179         1.673773
 H         0.479719         3.048152         0.785975
 H         1.057896         2.866400         2.423302
 H         3.129408         1.904372         0.977953
 H        -0.524048        -1.620522         0.636390
 H        -0.340185        -0.547882        -0.793092
 H         0.934430        -1.797275        -0.427508
 H         1.847894        -0.121558         3.948598
