19
Iteration:  3971charge 0 multiplicity 1
 C        -1.098111         0.645093         2.499373
 C         0.236696         0.941175         1.806402
 C         0.937333         2.297507         1.368528
 C         2.197873         1.484129         1.181023
 O         1.847669         0.775519        -0.011149
 C         0.875622        -0.050358         0.742359
 C         0.326419        -1.238816         0.045077
 C         1.652627         0.320217         2.055083
 O         1.876318        -0.561079         3.017970
 H        -1.136059         1.505290         3.216352
 H        -1.917578         0.681075         1.818107
 H        -0.922229        -0.144530         3.138010
 H         0.641297         2.798294         0.377233
 H         1.059356         2.861931         2.334023
 H         3.161692         2.013665         1.119572
 H        -0.381989        -1.832213         0.628175
 H        -0.099404        -0.929391        -0.859326
 H         1.087765        -1.911394        -0.396392
 H         1.935765        -0.022859         3.850043
