19
Iteration:   577charge 0 multiplicity 1
 C        -1.196432         0.715675         2.371757
 C         0.164443         0.913299         1.594437
 C         0.890149         2.313521         1.448152
 C         2.228767         1.485789         1.227642
 O         1.918439         0.698669         0.005249
 C         1.056038        -0.120062         0.708223
 C         0.165854        -1.243023         0.238148
 C         1.539025         0.288256         1.989562
 O         2.108510        -0.458574         3.023198
 H        -1.044415         0.462866         3.464055
 H        -1.846727         1.617004         2.377272
 H        -1.858395         0.040190         1.854669
 H         0.540530         3.061800         0.732425
 H         0.968596         2.844659         2.398604
 H         3.296614         1.886155         1.294897
 H        -0.455797        -1.648807         0.981231
 H        -0.400791        -0.978055        -0.697098
 H         0.894258        -1.973093        -0.010840
 H         1.869555        -0.158007         3.916319
