19
Iteration:   342charge 0 multiplicity 1
 C        -1.201712         0.756590         2.177458
 C         0.266568         1.038850         1.961465
 C         0.813109         2.248665         1.427633
 C         2.109571         1.455073         1.143106
 O         1.847477         0.712707        -0.043126
 C         1.057795        -0.143657         0.761893
 C         0.247090        -1.228662         0.117528
 C         1.487901         0.284877         2.080223
 O         2.254729        -0.431406         3.148393
 H        -1.594561         1.449678         2.902730
 H        -1.708815         0.941328         1.225113
 H        -1.616331        -0.267047         2.490171
 H         0.321099         2.810387         0.692860
 H         1.164570         2.786508         2.323389
 H         3.241899         1.861556         1.168057
 H        -0.594760        -1.657739         0.812357
 H        -0.203754        -0.868751        -0.736409
 H         0.901255        -2.086195        -0.089112
 H         1.662826        -1.163557         3.214035
