19
Iteration:  2001
 C        -1.088568         0.762169         2.456816
 C         0.200550         1.021947         1.824215
 C         0.938045         2.347293         1.544961
 C         2.158364         1.419672         1.231038
 O         1.874109         0.848678        -0.098890
 C         0.956990        -0.009774         0.663696
 C         0.397588        -1.380341         0.091552
 C         1.493204         0.277806         2.031803
 O         1.912355        -0.599552         2.938924
 H        -1.866140         0.958594         1.794699
 H        -1.231809        -0.279869         2.663412
 H        -1.271299         1.359295         3.355941
 H         0.482665         3.059062         0.813809
 H         1.125098         2.736293         2.563305
 H         3.279713         1.638357         1.150031
 H        -0.221621        -1.858409         0.863279
 H        -0.236898        -1.175955        -0.762342
 H         1.162715        -2.235022        -0.118431
 H         2.075854        -0.207626         3.807012
