19
Iteration:  1693
 C        -1.149709         0.677905         2.220081
 C         0.208752         0.929171         1.779384
 C         0.855835         2.307962         1.422004
 C         2.159402         1.440545         1.161038
 O         1.821761         0.662589         0.023910
 C         0.920181        -0.064464         0.806191
 C         0.224067        -1.170475         0.055212
 C         1.694278         0.269238         2.046329
 O         2.176777        -0.457438         3.215540
 H        -1.504025         0.278423         3.153647
 H        -1.843515         1.533889         2.018110
 H        -1.572064        -0.113222         1.558822
 H         0.371832         2.910064         0.611257
 H         1.036567         2.814297         2.322162
 H         3.123780         2.016238         1.073787
 H        -0.489270        -1.836002         0.632843
 H        -0.202052        -0.667126        -0.828032
 H         0.932474        -1.863865        -0.382881
 H         1.786582         0.202636         3.847333
