19
Iteration:  3400charge 0 multiplicity 1
 C        -1.121895         0.705544         2.221801
 C         0.267331         0.990642         1.782496
 C         0.865322         2.345134         1.432908
 C         2.125395         1.496653         1.197367
 O         1.797349         0.717594         0.005889
 C         0.880955        -0.047125         0.808642
 C         0.324534        -1.216362         0.156317
 C         1.578951         0.267224         2.033723
 O         2.123770        -0.560654         3.127439
 H        -1.146157         1.254104         3.221405
 H        -1.794931         1.203478         1.453459
 H        -1.480141        -0.252835         2.343512
 H         0.623868         2.930959         0.510530
 H         1.117580         3.043946         2.323896
 H         3.140828         1.961756         1.192346
 H        -0.518188        -1.562369         0.657841
 H        -0.007746        -0.939871        -0.858882
 H         1.078807        -1.981563         0.192433
 H         1.762500        -1.426183         2.950847
