19
Iteration:  1866
 C        -1.202353         0.622459         2.119067
 C         0.236358         1.014128         1.930428
 C         0.896321         2.269990         1.489561
 C         2.143098         1.473051         1.247821
 O         1.783222         0.674332        -0.126467
 C         0.991154        -0.021645         0.772027
 C         0.257535        -1.116954         0.147173
 C         1.657092         0.225177         2.055706
 O         2.158597        -0.519530         3.105560
 H        -1.714180         1.375259         2.838417
 H        -1.769504         0.974106         1.278003
 H        -1.287385        -0.333784         2.545394
 H         0.439298         2.949410         0.634165
 H         1.017811         2.922920         2.371324
 H         3.187090         1.665856         1.263327
 H        -0.526646        -1.588600         0.846679
 H        -0.556680        -0.741158        -0.656769
 H         0.870317        -1.910535        -0.233629
 H         2.089282        -0.148430         4.017133
