19
Iteration:  3297charge 0 multiplicity 1
 C        -1.063622         0.707640         2.364691
 C         0.287583         0.960136         1.796379
 C         0.923946         2.297439         1.455295
 C         2.199106         1.448436         1.153642
 O         1.856228         0.704289        -0.107862
 C         0.872862         0.000674         0.698605
 C         0.329790        -1.183369         0.136639
 C         1.548934         0.243659         2.073708
 O         1.943962        -0.535004         3.145000
 H        -1.252145         1.298020         3.321712
 H        -1.824419         1.154102         1.771423
 H        -1.233410        -0.437106         2.533418
 H         0.395539         2.648219         0.479475
 H         1.186804         3.023913         2.377244
 H         3.136378         1.956394         1.011537
 H         0.143616        -2.140701         0.691914
 H        -0.514117        -1.031982        -0.533029
 H         1.098848        -1.454217        -0.613422
 H         1.437745        -0.181647         3.929345
