19
Iteration:  3625charge 0 multiplicity 1
 C        -1.221358         0.825066         2.204353
 C         0.214950         0.861222         1.831536
 C         0.918491         2.285573         1.531846
 C         2.175786         1.471333         1.181518
 O         1.876066         0.837563        -0.021596
 C         0.919344        -0.073292         0.743048
 C         0.273777        -1.394014         0.222050
 C         1.514825         0.253751         2.042803
 O         2.185613        -0.463633         2.984749
 H        -1.304189         1.080892         3.260012
 H        -1.582767         1.745915         1.644818
 H        -1.721537        -0.191907         1.949618
 H         0.520156         2.939695         0.612539
 H         0.875682         2.874536         2.485682
 H         3.211078         1.612474         1.428511
 H        -0.161772        -1.999743         1.050685
 H        -0.413253        -1.020923        -0.591771
 H         1.150236        -1.906689        -0.273728
 H         1.458482        -0.628544         3.645861
