19
Iteration:  4233charge 0 multiplicity 1
 C        -1.281064         0.747387         2.258618
 C         0.166912         0.903244         1.816219
 C         0.876279         2.344422         1.386062
 C         2.153015         1.490385         1.217563
 O         1.885691         0.755596        -0.065820
 C         1.006423        -0.091340         0.837144
 C         0.191069        -1.182063         0.213362
 C         1.590260         0.270272         2.090278
 O         2.235486        -0.612989         2.969562
 H        -1.491427         1.420867         3.113467
 H        -2.062041         0.882230         1.485068
 H        -1.417839        -0.211613         2.670438
 H         0.745443         3.010955         0.520502
 H         0.909993         2.888375         2.276827
 H         3.163624         1.810947         1.448667
 H        -0.576946        -1.634146         0.873576
 H        -0.173404        -0.777886        -0.736997
 H         1.057850        -1.917764        -0.122775
 H         2.039710        -0.305188         3.886617
