19
Iteration:   642
 C        -1.033278         0.785344         2.556360
 C         0.233195         1.020671         1.680881
 C         0.909340         2.337642         1.445303
 C         2.133457         1.461272         1.058874
 O         1.805658         0.741962        -0.148004
 C         1.022693        -0.074504         0.738061
 C         0.489924        -1.362791         0.146014
 C         1.545945         0.316050         2.042930
 O         1.755732        -0.562627         3.111774
 H        -0.718605         0.424828         3.556073
 H        -1.649572         1.692047         2.594200
 H        -1.717745         0.089479         2.135480
 H         0.449843         3.132309         0.825833
 H         1.342160         2.745151         2.385953
 H         3.290720         1.671922         1.057227
 H         0.117312        -2.111370         0.788567
 H        -0.215162        -1.157966        -0.700739
 H         1.382376        -1.827867        -0.383421
 H         1.668962        -0.091170         4.000587
