19
Iteration:  2659charge 0 multiplicity 1
 C        -1.261424         0.818231         2.141588
 C         0.154473         1.059855         1.950133
 C         0.957791         2.267844         1.625912
 C         2.139228         1.435613         1.280463
 O         1.880657         0.675779        -0.032082
 C         0.981781        -0.106074         0.748319
 C         0.133225        -1.162811         0.060421
 C         1.559612         0.164553         2.042008
 O         2.300493        -0.523931         2.944401
 H        -1.747772         0.389016         1.286618
 H        -1.330028         0.167962         3.097004
 H        -1.871043         1.706656         2.410875
 H         0.580485         2.944642         0.792600
 H         1.150099         2.932722         2.560959
 H         3.099928         1.871123         1.130256
 H        -0.594123        -1.796528         0.708426
 H        -0.340456        -0.624019        -0.785616
 H         0.728930        -2.084561        -0.165970
 H         2.022253        -0.426189         3.891386
