19
Iteration:  4724
 C        -1.066994         0.769214         2.471191
 C         0.235410         0.980453         1.788578
 C         0.890247         2.395852         1.466173
 C         2.085649         1.564180         1.163620
 O         1.812730         0.738203        -0.078990
 C         0.928393        -0.046053         0.662964
 C         0.507884        -1.371680         0.179595
 C         1.534283         0.282746         2.029685
 O         1.925916        -0.561680         3.064335
 H        -0.962518         1.209687         3.469396
 H        -1.878416         1.373321         2.001802
 H        -1.475022        -0.263388         2.511938
 H         0.404989         3.051701         0.683606
 H         0.950799         3.020514         2.348442
 H         3.120116         1.866493         1.187609
 H         0.270138        -1.317673        -0.910677
 H         1.262692        -2.062513         0.156193
 H        -0.466332        -1.897052         0.613131
 H         2.131392        -1.453767         2.743088
