19
Iteration:  3659charge 0 multiplicity 1
 C        -1.172983         0.667173         2.273553
 C         0.189877         0.901372         1.665782
 C         0.936037         2.325247         1.538354
 C         2.205603         1.411489         1.119717
 O         1.897016         0.725974        -0.066505
 C         0.873660        -0.043662         0.741065
 C         0.210458        -1.164934         0.137715
 C         1.579039         0.287329         2.055607
 O         2.174683        -0.456786         3.169498
 H        -1.325668         1.238816         3.212931
 H        -2.081609         0.721789         1.668205
 H        -1.391442        -0.420365         2.667139
 H         0.521276         3.169145         0.800502
 H         1.075483         2.780669         2.531591
 H         3.149025         1.894644         1.258105
 H        -0.670309        -1.608003         0.568992
 H        -0.230704        -0.887951        -0.916896
 H         0.991614        -1.943514        -0.006509
 H         1.527058        -0.616459         3.893855
