19
Iteration:  3437charge 0 multiplicity 1
 C        -1.244011         0.680626         2.308795
 C         0.171066         0.912195         1.773514
 C         1.001441         2.400514         1.542048
 C         2.123186         1.423017         1.233294
 O         1.920011         0.715517        -0.024568
 C         0.933049        -0.097511         0.679737
 C         0.226733        -1.207977         0.053733
 C         1.512730         0.179613         2.034691
 O         2.206886        -0.346023         3.094487
 H        -1.605764         1.492397         2.852094
 H        -2.045838         0.717686         1.543894
 H        -1.284758        -0.274632         2.904648
 H         0.605683         3.061772         0.847373
 H         1.123267         2.851544         2.438899
 H         3.129312         1.819973         1.347892
 H        -0.753455        -1.276865         0.660965
 H         0.130220        -1.115885        -1.007517
 H         0.718167        -2.222203         0.137530
 H         1.833499        -1.202619         3.356822
