19
Iteration:  3642charge 0 multiplicity 1
 C        -1.221185         0.750946         2.243078
 C         0.181840         0.990833         1.701278
 C         0.893443         2.249423         1.555589
 C         2.156503         1.442460         1.296853
 O         1.838801         0.720412        -0.077914
 C         1.001908        -0.049048         0.699727
 C         0.274122        -1.252225         0.172613
 C         1.562894         0.231235         1.998579
 O         2.196946        -0.435612         3.070816
 H        -1.365144         1.164508         3.314808
 H        -1.936276         1.331996         1.640964
 H        -1.439676        -0.271967         2.260115
 H         0.601504         2.930596         0.829714
 H         1.056685         2.751777         2.554632
 H         3.222950         1.849969         1.174799
 H        -0.313479        -1.505444         1.078167
 H        -0.370337        -1.119533        -0.707178
 H         0.789761        -2.148276        -0.140063
 H         1.557753        -0.659687         3.799776
