19
Iteration:   711charge 0 multiplicity 1
 C        -1.210207         0.759644         2.172905
 C         0.263115         0.947167         1.876709
 C         0.906240         2.260685         1.450533
 C         2.165239         1.558291         1.075157
 O         1.824559         0.689789         0.003512
 C         0.890437        -0.062981         0.861480
 C         0.237538        -1.191054         0.204272
 C         1.655742         0.318622         2.059882
 O         2.147978        -0.604485         3.023403
 H        -1.409875         0.927755         3.246729
 H        -1.870536         1.270670         1.418023
 H        -1.440920        -0.340708         1.980300
 H         0.409710         2.874658         0.713935
 H         1.132147         2.846521         2.381484
 H         3.159271         2.018104         1.100142
 H        -0.487980        -1.795226         0.906938
 H        -0.265439        -0.899864        -0.737699
 H         0.972896        -1.878163        -0.032702
 H         1.909804        -0.235122         3.892816
