19
Iteration:  3491charge 0 multiplicity 1
 C        -1.125907         0.685805         2.369503
 C         0.236648         0.999917         1.883444
 C         0.946281         2.268740         1.503233
 C         2.236356         1.431241         1.181766
 O         1.803167         0.732028        -0.180664
 C         1.017037        -0.088654         0.704255
 C         0.291992        -1.185724        -0.017901
 C         1.515751         0.277581         2.073238
 O         2.057197        -0.455566         3.214617
 H        -1.586183         1.410457         3.008146
 H        -1.862560         0.404113         1.474332
 H        -1.151985        -0.245556         2.968013
 H         0.379657         2.714067         0.640110
 H         1.045239         3.003676         2.321410
 H         3.166267         1.989130         1.251806
 H        -0.499808        -1.779508         0.558975
 H        -0.305729        -0.834533        -0.838010
 H         0.968991        -2.003498        -0.342962
 H         1.232724        -0.503344         3.756969
