19
Iteration:  2910
 C        -1.101227         0.836707         2.426055
 C         0.280676         0.916726         1.816288
 C         0.881599         2.313721         1.409252
 C         2.124636         1.478870         1.137483
 O         1.834504         0.827667        -0.110787
 C         0.934425        -0.046082         0.627211
 C         0.407114        -1.289063         0.172769
 C         1.623595         0.178042         2.059589
 O         1.831983        -0.567312         3.180886
 H        -1.118335         0.993591         3.472218
 H        -1.528225         1.799751         2.027662
 H        -1.760523        -0.011864         2.196996
 H         0.683326         2.712912         0.469169
 H         1.001390         2.993781         2.257306
 H         3.277858         1.869439         0.930385
 H        -0.088647        -1.740591         1.041462
 H        -0.311712        -1.318039        -0.546159
 H         1.221698        -1.912724        -0.111000
 H         2.698096        -0.975725         3.069574
