19
Iteration:  4518
 C        -1.189226         0.734339         2.409714
 C         0.140023         0.948377         1.674179
 C         0.827662         2.324639         1.546814
 C         2.215599         1.505117         1.155764
 O         1.837634         0.806765        -0.098368
 C         0.878671         0.039003         0.704983
 C         0.480837        -1.318581         0.227730
 C         1.580108         0.245022         2.001015
 O         1.983523        -0.606517         3.023970
 H        -1.061373         1.094182         3.453454
 H        -2.087252         1.341394         1.861213
 H        -1.461665        -0.308026         2.471241
 H         0.612325         2.942833         0.597572
 H         1.098679         2.911267         2.397165
 H         3.330325         1.636320         1.242419
 H        -0.351503        -1.365261        -0.493326
 H         1.275653        -1.847391        -0.110218
 H         0.158999        -1.819132         1.210775
 H         2.693084        -0.282035         3.618353
