19
Iteration:  3123
 C        -1.122792         0.730395         2.455380
 C         0.250037         1.010074         1.715821
 C         0.987811         2.333303         1.415100
 C         2.270207         1.480454         1.084610
 O         1.867029         0.776002        -0.021511
 C         0.831820        -0.002802         0.696462
 C         0.404998        -1.378441         0.154136
 C         1.530352         0.287086         2.040919
 O         1.872286        -0.508950         3.148495
 H        -0.869771         1.076946         3.532341
 H        -1.944287         1.385491         2.288944
 H        -1.557712        -0.289798         2.267085
 H         0.626233         2.933504         0.592863
 H         0.989726         3.036108         2.255808
 H         3.189497         1.972562         1.018162
 H        -0.039031        -2.024704         0.940285
 H        -0.360387        -1.352162        -0.646732
 H         1.214548        -1.859420        -0.311423
 H         1.650823        -1.422126         2.994711
