19
Iteration:   447charge 0 multiplicity 1
 C        -1.024371         0.691808         2.437417
 C         0.224539         1.044763         1.679670
 C         0.867353         2.360721         1.348529
 C         2.173706         1.494364         1.171501
 O         1.887679         0.767481        -0.070355
 C         0.934389        -0.014323         0.732268
 C         0.396829        -1.277529         0.220652
 C         1.568778         0.247022         2.035462
 O         1.856951        -0.655901         3.067396
 H        -1.268068         1.624781         3.067434
 H        -2.029382         0.314186         2.030453
 H        -0.709408         0.083387         3.325167
 H         0.528376         2.986588         0.484163
 H         1.061472         3.072189         2.215865
 H         3.093686         2.058340         0.953901
 H         0.015519        -1.930332         1.139867
 H        -0.471000        -1.238378        -0.610004
 H         1.290231        -1.751454        -0.274613
 H         1.437415        -0.328832         3.910892
