19
Iteration:  2092charge 0 multiplicity 1
 C        -1.235571         0.683479         2.247501
 C         0.227237         0.899345         1.710811
 C         0.991949         2.252469         1.608864
 C         2.239131         1.472582         1.232549
 O         1.790265         0.719222        -0.031714
 C         0.906975        -0.070058         0.715078
 C         0.206544        -1.110305         0.076390
 C         1.561929         0.260525         2.068500
 O         2.149534        -0.511853         3.040649
 H        -1.971033         0.738629         1.556868
 H        -1.440474        -0.174578         2.959647
 H        -1.352821         1.618345         2.797902
 H         0.671139         2.941599         0.834572
 H         1.082066         2.668419         2.642606
 H         3.250152         1.951014         1.091786
 H        -0.209995        -1.778455         0.926209
 H        -0.467701        -0.686519        -0.631300
 H         0.902852        -1.831255        -0.454251
 H         2.282640        -0.185092         3.922851
