19
Iteration:  2711charge 0 multiplicity 1
 C        -1.101561         0.767189         2.383308
 C         0.233329         0.974644         1.786195
 C         0.937547         2.330500         1.513586
 C         2.187001         1.461435         1.162150
 O         1.797640         0.777106        -0.091160
 C         0.999433        -0.046174         0.724412
 C         0.307317        -1.253175         0.073730
 C         1.584185         0.280048         2.042246
 O         1.997496        -0.585690         3.094052
 H        -1.912176         1.080816         1.667392
 H        -1.311978        -0.220963         2.812559
 H        -1.190833         1.462611         3.209834
 H         0.574403         3.052664         0.812378
 H         1.047374         2.810643         2.472053
 H         3.359172         1.787037         1.168330
 H        -0.399651        -1.563418         0.843615
 H        -0.362582        -1.062246        -0.743024
 H         0.968639        -2.096152        -0.170230
 H         1.302977        -1.242193         3.360840
