19
Iteration:  1469
 C        -1.094477         0.612210         2.263788
 C         0.304797         0.942560         1.739688
 C         0.867475         2.347092         1.540033
 C         2.181931         1.412982         1.145416
 O         1.839848         0.755948        -0.045809
 C         1.032813        -0.096551         0.781443
 C         0.203894        -1.162268         0.093042
 C         1.578046         0.259445         2.082661
 O         2.041512        -0.527020         3.133103
 H        -1.753529         1.182791         1.530171
 H        -1.491080        -0.408792         2.306928
 H        -1.358599         1.131168         3.190425
 H         0.512523         2.938995         0.680198
 H         0.947046         3.108064         2.327527
 H         3.060873         1.977201         1.071347
 H        -0.408716        -1.694542         0.770418
 H        -0.561995        -0.682348        -0.597230
 H         0.884520        -1.816943        -0.578494
 H         1.742766         0.049041         3.864090
