19
Iteration:  2825charge 0 multiplicity 1
 C        -1.155598         0.732900         2.245101
 C         0.280053         0.891042         1.763413
 C         0.901754         2.246211         1.465887
 C         2.228878         1.496847         1.154019
 O         1.784655         0.715953        -0.009505
 C         1.005195        -0.086460         0.759720
 C         0.160368        -1.177676         0.064480
 C         1.647273         0.270055         2.086506
 O         2.044355        -0.436160         3.238262
 H        -1.260108         1.338866         3.134815
 H        -1.857869         1.040637         1.405686
 H        -1.575607        -0.296451         2.514457
 H         0.511670         2.868456         0.593011
 H         0.960393         2.970144         2.316659
 H         3.295792         1.779143         0.945615
 H        -0.515612        -1.667443         0.832866
 H        -0.493986        -0.585370        -0.680286
 H         0.718187        -2.057685        -0.392469
 H         2.700054        -1.097631         2.923871
