19
Iteration:   211charge 0 multiplicity 1
 C        -1.135952         0.764679         2.473019
 C         0.272361         0.995241         1.811314
 C         0.928722         2.242133         1.402213
 C         2.206786         1.458633         1.163108
 O         1.868358         0.736347        -0.073109
 C         0.930779        -0.078543         0.703444
 C         0.337031        -1.325067         0.098891
 C         1.551005         0.241701         1.998987
 O         1.942709        -0.402047         3.134852
 H        -1.280817         1.388632         3.322448
 H        -1.916177         1.067487         1.850490
 H        -1.069248        -0.339833         2.722820
 H         0.549584         2.661202         0.521271
 H         1.107462         3.112204         2.049548
 H         3.275111         1.988068         1.217367
 H        -0.284825        -2.105498         0.775817
 H        -0.152875        -1.026493        -0.765447
 H         1.191459        -1.826088        -0.383978
 H         1.076262        -0.608751         3.602157
