19
Iteration:  3372charge 0 multiplicity 1
 C        -1.217132         0.787243         2.346521
 C         0.218559         0.926675         1.766437
 C         0.935686         2.265370         1.493555
 C         2.213791         1.525016         1.173274
 O         1.881193         0.775892        -0.106741
 C         0.910306        -0.050520         0.769782
 C         0.392313        -1.289678         0.217163
 C         1.517945         0.318726         2.008089
 O         1.977528        -0.549665         3.100897
 H        -1.167357         1.110816         3.372018
 H        -1.870577         1.546581         1.858220
 H        -1.738136        -0.260427         2.232465
 H         0.710437         2.857846         0.584243
 H         0.972534         2.855508         2.422009
 H         3.177272         2.030799         1.206171
 H        -0.198447        -1.905658         1.031930
 H        -0.284761        -1.090134        -0.622739
 H         1.149789        -2.059735        -0.165056
 H         2.409917        -1.252409         2.590315
