19
Iteration:  3565charge 0 multiplicity 1
 C        -1.147056         0.792917         2.276538
 C         0.239645         1.001782         1.818923
 C         0.908681         2.279177         1.517714
 C         2.193047         1.579181         1.240611
 O         1.886478         0.738729        -0.038404
 C         0.875329        -0.000867         0.717156
 C         0.371625        -1.402002         0.216765
 C         1.578194         0.311165         1.977681
 O         1.904642        -0.582716         2.977805
 H        -1.184065         0.731520         3.372157
 H        -1.927722         1.400635         1.921826
 H        -1.449957        -0.139388         1.980703
 H         0.642106         2.796319         0.575701
 H         0.889985         2.992667         2.418044
 H         3.231609         1.952551         1.214078
 H         0.462085        -2.137869         0.968202
 H        -0.606143        -1.569042        -0.094073
 H         1.059198        -1.782024        -0.503484
 H         2.544690        -0.233305         3.637982
