19
Iteration:  4288
 C        -1.272948         0.807128         2.202662
 C         0.187384         0.989655         1.774356
 C         1.005758         2.331394         1.582089
 C         2.223944         1.403911         1.157659
 O         1.725641         0.797989        -0.101651
 C         0.953878         0.003847         0.694072
 C         0.419452        -1.354234         0.243040
 C         1.511667         0.286615         2.083758
 O         2.071119        -0.596898         3.015761
 H        -1.348984         1.050553         3.266803
 H        -2.090794         1.162720         1.602044
 H        -1.320996        -0.232079         2.261057
 H         0.792667         3.181364         0.895215
 H         1.113505         2.626840         2.587470
 H         3.287441         1.742845         1.024473
 H         0.412517        -1.868789         1.229788
 H        -0.585740        -1.160238        -0.009811
 H         1.071506        -1.969301        -0.499936
 H         2.125908        -0.128751         3.866194
