19
Iteration:  1169charge 0 multiplicity 1
 C        -1.144616         0.758155         2.370149
 C         0.178319         1.008553         1.773872
 C         0.915361         2.363115         1.557803
 C         2.184136         1.459979         1.254142
 O         1.924404         0.787457        -0.056523
 C         0.895709         0.078846         0.711916
 C         0.312183        -1.178796         0.126073
 C         1.522562         0.213905         2.035236
 O         2.018667        -0.781717         2.912642
 H        -1.519883         1.572510         2.988290
 H        -1.832824         0.668852         1.513439
 H        -1.059804        -0.169720         2.952612
 H         0.529832         2.961294         0.742634
 H         1.112870         2.899646         2.550113
 H         3.306485         1.647989         1.313132
 H        -0.122551        -1.683579         1.087119
 H        -0.394394        -0.928508        -0.640928
 H         0.968698        -1.885401        -0.277116
 H         2.118014        -0.382604         3.823539
