19
Iteration:  4458charge 0 multiplicity 1
 C        -1.214572         0.721636         2.196067
 C         0.164094         0.837269         1.807720
 C         0.896676         2.242926         1.425899
 C         2.157655         1.524205         1.128058
 O         1.806410         0.842360        -0.049020
 C         0.947391        -0.006391         0.824043
 C         0.239017        -1.194055         0.211021
 C         1.624206         0.283876         2.073823
 O         2.230485        -0.612628         3.113096
 H        -1.537794         1.487159         2.922024
 H        -1.825992         0.980560         1.341147
 H        -1.482586        -0.341753         2.532309
 H         0.571946         2.851970         0.631484
 H         1.240726         2.988465         2.200108
 H         3.120844         2.005093         1.069908
 H        -0.872522        -1.275276         0.226854
 H         0.676112        -1.297911        -0.932216
 H         0.550303        -2.069369         0.747708
 H         1.762214        -0.677147         3.949612
