19
Iteration:  2815charge 0 multiplicity 1
 C        -1.178830         0.782209         2.316633
 C         0.230986         0.893902         1.759920
 C         0.917975         2.226240         1.444991
 C         2.188015         1.477550         1.104288
 O         1.832365         0.748019        -0.112535
 C         1.045240        -0.139464         0.755431
 C         0.190228        -1.154711         0.118066
 C         1.679700         0.265000         2.123784
 O         1.991657        -0.476818         3.243024
 H        -1.504808         1.534591         3.043780
 H        -1.879809         0.956470         1.472540
 H        -1.243768        -0.271954         2.737290
 H         0.467926         2.934097         0.656521
 H         0.942399         2.602744         2.481466
 H         3.077561         2.029166         1.114037
 H        -0.577804        -1.670151         0.746879
 H        -0.383790        -0.560163        -0.716267
 H         0.788933        -1.880651        -0.538664
 H         2.810993        -0.980665         3.155692
