19
Iteration:  4912
 C        -1.018378         0.753674         2.460982
 C         0.242628         0.913420         1.759671
 C         0.875762         2.269646         1.498888
 C         2.108107         1.548154         1.176061
 O         1.817246         0.791731        -0.091794
 C         0.933391        -0.072539         0.682567
 C         0.434052        -1.320747         0.097291
 C         1.578017         0.327815         2.049927
 O         1.850428        -0.559603         3.090510
 H        -1.019512         1.475115         3.375385
 H        -1.888951         1.269833         1.861437
 H        -1.204714        -0.287192         2.734807
 H         0.397088         2.949055         0.608341
 H         0.974964         2.972629         2.350370
 H         3.229032         1.941288         1.201884
 H         0.031016        -1.112819        -0.919382
 H         1.185492        -2.106628         0.137658
 H        -0.387705        -1.644198         0.764064
 H         2.706457        -0.961973         2.911677
