19
Iteration:   106
 C        -1.121583         0.737926         2.293867
 C         0.218155         0.939067         1.677318
 C         0.847470         2.336276         1.417105
 C         2.211452         1.450524         1.126604
 O         1.905092         0.766894        -0.020185
 C         0.935215        -0.111543         0.838273
 C         0.248386        -1.337473         0.198439
 C         1.585940         0.392571         2.095022
 O         2.016611        -0.539888         3.052326
 H        -1.134383         1.341107         3.280772
 H        -1.932665         1.130214         1.543839
 H        -1.375811        -0.317078         2.503233
 H         0.453600         2.966288         0.544491
 H         0.901949         2.805910         2.416633
 H         3.181834         1.863348         1.199458
 H        -0.397600        -1.862939         0.899484
 H        -0.400659        -1.001564        -0.754494
 H         1.097006        -2.017124        -0.140684
 H         2.320947        -0.187843         3.941460
