19
Iteration:  1583
 C        -1.089948         0.725711         2.376734
 C         0.246579         1.013381         1.753187
 C         0.956150         2.437617         1.383919
 C         2.176716         1.527272         1.094454
 O         1.770757         0.815271        -0.028865
 C         0.886532        -0.002270         0.813058
 C         0.551466        -1.342693         0.225895
 C         1.623987         0.323219         2.080691
 O         1.801995        -0.766043         2.988119
 H        -1.562891         1.591899         2.794237
 H        -1.734898         0.324673         1.600168
 H        -0.838456        -0.030383         3.107669
 H         0.402285         3.086460         0.679082
 H         0.848194         2.924681         2.270639
 H         3.228123         1.937879         0.947968
 H        -0.044542        -1.905498         1.017165
 H        -0.131120        -1.386554        -0.662628
 H         1.433184        -1.826519         0.015654
 H         1.571785        -0.450000         3.852301
