19
Iteration:   966
 C        -1.259267         0.767961         2.324350
 C         0.125573         0.990852         1.783684
 C         0.991128         2.293752         1.592093
 C         2.278903         1.400013         1.291658
 O         1.822935         0.858041        -0.098302
 C         0.907151        -0.038372         0.707569
 C         0.261101        -1.255818         0.127685
 C         1.548361         0.199115         2.001528
 O         2.143864        -0.566397         2.968362
 H        -1.174770        -0.104944         3.027031
 H        -1.474509         1.574052         3.052240
 H        -1.997493         0.348812         1.572272
 H         0.916930         3.157313         0.814068
 H         1.183151         2.702945         2.573157
 H         3.271363         1.764215         1.559615
 H        -0.347114        -1.839087         0.805285
 H        -0.412841        -1.160646        -0.787392
 H         1.098605        -1.757851        -0.611246
 H         1.794052        -0.396575         3.833927
