19
Iteration:     8charge 0 multiplicity 1
 C        -1.121520         0.779155         2.310728
 C         0.197929         0.973044         1.766236
 C         0.933587         2.226663         1.445771
 C         2.185331         1.488769         1.141484
 O         1.848577         0.737405        -0.093058
 C         0.961511        -0.020986         0.767642
 C         0.341547        -1.284854         0.154880
 C         1.583384         0.310979         2.085202
 O         1.935376        -0.557705         3.113897
 H        -1.266632         1.356451         3.201561
 H        -1.936435         1.125625         1.643628
 H        -1.226813        -0.263884         2.431780
 H         0.566562         2.635415         0.504604
 H         1.083297         2.789917         2.349082
 H         3.089679         2.080004         1.107844
 H        -0.113990        -1.823863         0.927404
 H        -0.307095        -1.357746        -0.788102
 H         1.276825        -1.851961        -0.011302
 H         1.867729         0.001686         3.945452
