19
Iteration:  2113charge 0 multiplicity 1
 C        -1.146259         0.774725         2.365630
 C         0.223658         0.984030         1.720436
 C         0.929308         2.287386         1.574311
 C         2.149084         1.410407         1.241252
 O         1.885830         0.834473        -0.067065
 C         0.891164        -0.056630         0.675541
 C         0.243741        -1.273792         0.089538
 C         1.604678         0.222801         1.998823
 O         2.041121        -0.541064         3.053066
 H        -1.989725         0.984997         1.738683
 H        -1.092190        -0.326265         2.644958
 H        -1.321901         1.299463         3.331043
 H         0.594635         3.028168         0.809457
 H         1.161181         2.791764         2.557616
 H         3.289004         1.546889         1.237827
 H        -0.099785        -2.090180         0.884613
 H        -0.522618        -1.011629        -0.603767
 H         1.049217        -1.797883        -0.583274
 H         1.916553        -0.062898         3.924187
