19
Iteration:   389
 C        -1.110663         0.635054         2.350738
 C         0.220831         0.922642         1.680076
 C         0.930408         2.292532         1.521872
 C         2.165965         1.391819         1.211665
 O         1.872700         0.712077        -0.070116
 C         0.909025        -0.031602         0.687042
 C         0.268760        -1.238660         0.006455
 C         1.491436         0.314044         2.093316
 O         2.072894        -0.384507         3.163080
 H        -1.501393         1.676931         2.723249
 H        -1.898437         0.165195         1.730888
 H        -0.977726        -0.017579         3.216926
 H         0.608947         2.903294         0.664255
 H         1.091722         2.837912         2.423747
 H         3.208715         1.625995         1.146091
 H        -0.425508        -1.555860         0.737084
 H        -0.314052        -1.006975        -0.976081
 H         0.993027        -2.166617        -0.068255
 H         2.136851         0.109759         4.008380
