19
Iteration:   196
 C        -1.140816         0.718297         2.441442
 C         0.180142         0.922134         1.748879
 C         0.919629         2.319774         1.486798
 C         2.191451         1.393583         1.148032
 O         1.934678         0.649014        -0.091287
 C         0.968564        -0.061534         0.668921
 C         0.307005        -1.252020         0.074492
 C         1.488262         0.293143         2.024305
 O         2.064235        -0.346243         3.141065
 H        -1.334926         1.546322         3.160824
 H        -2.066366         0.809130         1.712017
 H        -1.322709        -0.262703         2.895962
 H         0.589853         3.037475         0.682851
 H         1.059857         2.720604         2.496370
 H         3.248992         1.798910         1.259035
 H        -0.358683        -1.547724         0.902088
 H        -0.404879        -1.069307        -0.851289
 H         0.945474        -2.103157        -0.188551
 H         1.260706        -0.530452         3.725536
