19
Iteration:  1391charge 0 multiplicity 1
 C        -1.159795         0.823915         2.371476
 C         0.247186         0.954144         1.779969
 C         0.973347         2.306287         1.471252
 C         2.188540         1.559678         1.110149
 O         1.793417         0.839885        -0.073294
 C         0.889879         0.037086         0.753375
 C         0.532323        -1.277142         0.180604
 C         1.590873         0.254411         2.100811
 O         1.836984        -0.812380         2.988828
 H        -1.686299        -0.086165         2.080969
 H        -1.059373         0.774379         3.481926
 H        -1.675756         1.812349         2.306389
 H         0.448835         2.844702         0.660226
 H         0.902641         2.823128         2.491288
 H         3.210614         1.796847         0.998337
 H         0.088696        -1.936922         0.921630
 H        -0.281690        -1.203515        -0.563369
 H         1.525902        -1.737673        -0.317733
 H         1.845084        -0.191377         3.783542
