19
Iteration:  2357charge 0 multiplicity 1
 C        -1.045750         0.883607         2.514991
 C         0.241932         0.910191         1.727849
 C         0.872206         2.270024         1.466766
 C         2.149936         1.592414         1.128227
 O         1.841828         0.720533        -0.144318
 C         0.962550         0.018784         0.706495
 C         0.464514        -1.326132         0.139666
 C         1.671478         0.199960         1.964628
 O         1.763856        -0.647761         3.123737
 H        -0.785508         0.860038         3.604361
 H        -1.588216         1.816349         2.434542
 H        -1.702938         0.050456         2.252681
 H         0.252103         2.970151         0.847366
 H         1.222159         2.900232         2.310296
 H         3.206836         2.068731         0.799962
 H         0.453250        -2.069737         0.935918
 H        -0.523326        -1.301880        -0.289670
 H         1.236674        -1.627198        -0.507570
 H         1.290365        -0.184762         3.859413
