19
Iteration:  2552charge 0 multiplicity 1
 C        -0.944303         0.801949         2.540500
 C         0.242684         1.032626         1.717489
 C         0.931765         2.274225         1.447668
 C         2.251957         1.550575         1.223638
 O         1.789907         0.827076        -0.120484
 C         0.959631        -0.045036         0.661091
 C         0.417397        -1.337620         0.083780
 C         1.501386         0.254991         2.052033
 O         1.782425        -0.708649         3.053034
 H        -1.765543         1.321635         2.032549
 H        -1.155442        -0.332019         2.564737
 H        -0.997009         1.213082         3.609263
 H         0.510334         2.825323         0.592569
 H         1.045618         2.996558         2.299919
 H         3.282808         2.031402         1.071834
 H        -0.073337        -1.939325         1.001753
 H        -0.522196        -1.124426        -0.513675
 H         1.311339        -1.797443        -0.452290
 H         1.434118        -0.232885         3.860198
