19
Iteration:  1352
 C        -1.216040         0.761851         2.335292
 C         0.168521         0.939857         1.733831
 C         0.980846         2.260537         1.553933
 C         2.264928         1.499389         1.237671
 O         1.877219         0.823322         0.009188
 C         0.904144        -0.010170         0.739006
 C         0.314748        -1.306630         0.135720
 C         1.535580         0.274613         1.987484
 O         2.030923        -0.608502         2.909114
 H        -1.485849        -0.233066         2.818925
 H        -1.291100         1.467529         3.168474
 H        -1.999558         0.982928         1.632541
 H         0.539400         3.103371         0.958796
 H         1.258147         2.808447         2.412803
 H         3.274927         1.835802         1.636748
 H        -0.456027        -1.763268         0.788075
 H        -0.146731        -1.082680        -0.880515
 H         1.055512        -1.986519        -0.026365
 H         1.850780        -0.363006         3.822411
