19
Iteration:   548charge 0 multiplicity 1
 C        -1.241903         0.785865         2.143054
 C         0.213618         0.975553         1.760960
 C         0.915737         2.249422         1.518218
 C         2.177344         1.457875         1.166834
 O         1.819326         0.703074        -0.055675
 C         0.935086        -0.069370         0.757032
 C         0.180358        -1.225792         0.227855
 C         1.552989         0.264631         2.110543
 O         2.275948        -0.502657         3.089169
 H        -1.393927         0.387701         3.145164
 H        -1.968253         1.624626         1.879070
 H        -1.613380        -0.142947         1.560285
 H         0.466909         2.835559         0.698370
 H         1.131096         2.905495         2.427265
 H         3.197098         1.936203         1.150091
 H        -0.576108        -1.813368         0.963900
 H        -0.316665        -1.077951        -0.774952
 H         1.044601        -1.853113        -0.001369
 H         2.273269        -0.027298         3.913659
