19
Iteration:  2516
 C        -1.086087         0.827308         2.464324
 C         0.180110         0.984571         1.719989
 C         0.916672         2.259558         1.535420
 C         2.213609         1.469062         1.159232
 O         1.851517         0.705266        -0.094603
 C         0.878178         0.009467         0.704907
 C         0.399092        -1.235649         0.094378
 C         1.511191         0.231962         2.027845
 O         1.967508        -0.595475         3.048316
 H        -1.720815         1.715069         2.329228
 H        -1.740773         0.060148         1.986883
 H        -0.931872         0.651491         3.545715
 H         0.461738         2.991499         0.802856
 H         1.144693         2.718258         2.555898
 H         3.137220         1.854126         1.142504
 H        -0.162908        -1.938460         0.804224
 H        -0.112469        -1.044374        -0.900430
 H         1.233541        -1.921725        -0.238085
 H         1.990310        -0.160641         3.941722
