19
Iteration:    92
 C        -1.136299         0.780061         2.399911
 C         0.145501         1.009884         1.656323
 C         0.929755         2.265409         1.403617
 C         2.167420         1.488725         1.290932
 O         1.925402         0.724544        -0.102172
 C         0.940443        -0.016998         0.675259
 C         0.381904        -1.339750         0.260193
 C         1.471200         0.268566         2.034863
 O         2.000962        -0.537346         3.017769
 H        -1.114696         1.204993         3.457901
 H        -2.047272         1.175700         1.918491
 H        -1.256835        -0.360348         2.577804
 H         0.677525         2.907527         0.506231
 H         0.881964         3.029040         2.239467
 H         3.208330         1.860755         1.387217
 H        -0.136060        -1.872461         1.180845
 H        -0.405902        -1.162577        -0.451509
 H         1.060331        -2.081904        -0.159436
 H         2.072073         0.072947         3.739735
