19
Iteration:   865charge 0 multiplicity 1
 C        -1.118952         0.646960         2.542710
 C         0.146383         1.048083         1.706238
 C         1.001483         2.343794         1.551406
 C         2.229299         1.484667         1.197612
 O         1.924223         0.756209        -0.016471
 C         0.961970        -0.020892         0.675362
 C         0.268591        -1.290677         0.040417
 C         1.499336         0.255738         1.970274
 O         1.911520        -0.527810         2.953229
 H        -1.867363         0.140944         1.944016
 H        -0.999798        -0.064705         3.383230
 H        -1.495713         1.602935         2.924936
 H         0.640199         3.104709         0.819676
 H         1.074507         2.706719         2.604081
 H         3.232819         1.705177         1.275841
 H        -0.240716        -2.014441         0.841743
 H        -0.461525        -1.255017        -0.766737
 H         1.120272        -1.929161        -0.249239
 H         2.324402        -0.017791         3.725149
