19
Iteration:  2716charge 0 multiplicity 1
 C        -1.074338         0.756754         2.400392
 C         0.258154         0.952548         1.829704
 C         0.933734         2.362814         1.500000
 C         2.205010         1.467954         1.144540
 O         1.832280         0.796423        -0.096710
 C         0.980912        -0.066137         0.724582
 C         0.309230        -1.275074         0.087027
 C         1.559740         0.260407         2.031534
 O         1.961893        -0.570685         3.099426
 H        -1.799837         1.130457         1.696940
 H        -1.391677        -0.276704         2.727015
 H        -1.129599         1.469424         3.278883
 H         0.509578         3.167699         0.812617
 H         1.029804         2.839465         2.536566
 H         3.150442         1.755310         1.031629
 H        -0.486807        -1.595592         0.845227
 H        -0.378761        -1.148423        -0.811306
 H         1.047655        -2.027654        -0.283865
 H         1.239632        -1.192208         3.219715
