19
Iteration:  4747
 C        -1.130640         0.792535         2.470690
 C         0.189183         0.929567         1.732605
 C         0.890855         2.243130         1.355884
 C         2.229483         1.390133         1.147108
 O         1.722892         0.847649        -0.051680
 C         0.877410         0.015593         0.751772
 C         0.540287        -1.281460         0.144223
 C         1.615377         0.331815         2.105451
 O         1.950365        -0.541923         3.102032
 H        -1.006301         1.123587         3.493930
 H        -2.012570         1.378947         2.119654
 H        -1.424605        -0.230974         2.462536
 H         0.592643         2.895040         0.500800
 H         0.796616         2.789463         2.220946
 H         3.196126         1.901875         1.067748
 H         0.048461        -1.234503        -0.856675
 H         1.388156        -1.802922        -0.180398
 H        -0.157895        -2.032044         0.755433
 H         1.818296        -1.484118         2.833029
