19
Iteration:  3836charge 0 multiplicity 1
 C        -1.243711         0.794450         2.173108
 C         0.126494         0.935197         1.767912
 C         0.911777         2.223621         1.504463
 C         2.178940         1.422014         1.232785
 O         1.872748         0.753358        -0.029217
 C         0.893261         0.049910         0.695814
 C         0.346103        -1.204626         0.284326
 C         1.529348         0.259398         2.122316
 O         2.189660        -0.588875         2.943401
 H        -1.317750         0.679488         3.302971
 H        -1.828040         1.666163         1.988320
 H        -1.806940        -0.079324         1.752482
 H         0.327064         2.712976         0.589200
 H         0.985663         2.873256         2.393664
 H         3.242741         1.732471         1.330607
 H         0.158399        -1.715832         1.216881
 H        -0.641338        -1.076288        -0.254314
 H         0.932360        -1.894321        -0.246860
 H         2.607135        -0.051123         3.635706
