19
Iteration:  2167charge 0 multiplicity 1
 C        -0.981740         0.709950         2.520815
 C         0.257740         0.995197         1.732279
 C         0.906451         2.333780         1.465219
 C         2.202862         1.568077         1.136608
 O         1.830136         0.780545        -0.115338
 C         0.928111         0.014703         0.730773
 C         0.443260        -1.298284         0.127957
 C         1.529288         0.335018         2.087318
 O         1.775360        -0.717973         3.001756
 H        -1.577940         1.607597         2.348589
 H        -1.651776        -0.086621         2.074894
 H        -0.878184         0.619879         3.624511
 H         0.576930         2.890872         0.580046
 H         1.106049         2.875530         2.414013
 H         3.233584         1.858168         0.855980
 H         0.021035        -1.961041         0.977562
 H        -0.326906        -1.039199        -0.531431
 H         1.171484        -1.998426        -0.396255
 H         1.758270        -0.428393         3.960277
