19
Iteration:  2392
 C        -1.108867         0.784313         2.494734
 C         0.182447         1.057304         1.660708
 C         0.982057         2.351512         1.448201
 C         2.176657         1.447448         1.259186
 O         1.827088         0.739280        -0.041314
 C         0.839158        -0.064038         0.654483
 C         0.414176        -1.354109         0.161449
 C         1.560960         0.260739         1.981950
 O         1.938783        -0.568069         3.012567
 H        -0.821612         0.715400         3.629333
 H        -1.885130         1.492501         2.316418
 H        -1.544284        -0.197611         2.336893
 H         0.782039         2.965146         0.493539
 H         1.188091         2.925125         2.394634
 H         3.306714         1.875589         1.330491
 H         0.161531        -1.986028         0.972247
 H        -0.453854        -1.320496        -0.603260
 H         1.248306        -1.767962        -0.448985
 H         1.757565         0.000805         3.811572
