19
Iteration:  3218charge 0 multiplicity 1
 C        -1.189780         0.709149         2.230175
 C         0.249696         0.972848         1.803723
 C         1.017731         2.281118         1.516758
 C         2.159862         1.438592         1.197554
 O         1.819754         0.683161        -0.061196
 C         0.869010        -0.101979         0.798500
 C         0.161201        -1.210793         0.034283
 C         1.647819         0.268126         2.056020
 O         2.094406        -0.384109         3.210668
 H        -1.472225         1.440994         2.898848
 H        -1.878986         0.732819         1.384477
 H        -1.403513        -0.230084         2.763002
 H         0.671353         3.050067         0.788073
 H         1.042369         2.891698         2.429541
 H         3.200903         1.827840         1.181957
 H        -0.777696        -1.602910         0.463926
 H        -0.066388        -0.819821        -0.939489
 H         0.827090        -2.101484        -0.141145
 H         2.804201        -1.013196         2.857136
