19
Iteration:  4880charge 0 multiplicity 1
 C        -1.178636         0.662872         2.420026
 C         0.163493         0.918151         1.689807
 C         0.933003         2.244363         1.471140
 C         2.144181         1.497046         1.247755
 O         1.877454         0.731583        -0.066514
 C         0.884833         0.005869         0.663958
 C         0.288758        -1.209375         0.076363
 C         1.554609         0.286524         2.057408
 O         2.097674        -0.424432         3.159728
 H        -1.200701         1.358163         3.336124
 H        -2.112449         0.608633         1.746211
 H        -1.085558        -0.355107         2.808965
 H         0.778424         2.936315         0.485880
 H         1.047054         2.946714         2.315364
 H         3.225095         1.822143         1.445099
 H        -0.320923        -1.020957        -0.858583
 H         1.150979        -1.896196        -0.271844
 H        -0.395692        -1.608967         0.852459
 H         2.386166        -1.319994         2.845446
