19
Iteration:  3277
 C        -1.112953         0.668547         2.357188
 C         0.267835         0.991951         1.736079
 C         0.894997         2.326484         1.407664
 C         2.232963         1.484397         1.158408
 O         1.885563         0.735686        -0.017159
 C         0.944765        -0.062601         0.734076
 C         0.196567        -1.230454         0.035566
 C         1.581993         0.268471         2.072684
 O         2.062430        -0.490097         3.198806
 H        -1.396608         1.460541         3.174624
 H        -1.916176         0.941338         1.714358
 H        -1.127867        -0.440046         2.654772
 H         0.567991         2.818543         0.447678
 H         0.969132         2.721059         2.485119
 H         3.257418         1.835733         1.126426
 H        -0.259482        -1.833960         0.852916
 H        -0.679577        -0.827513        -0.535551
 H         0.707452        -1.884842        -0.628867
 H         1.207848        -0.835566         3.496948
