19
Iteration:   790
 C        -1.149122         0.775547         2.420293
 C         0.196929         0.948678         1.837299
 C         0.926423         2.344123         1.540023
 C         2.124142         1.427023         1.166624
 O         1.887923         0.709570        -0.035111
 C         0.972337        -0.043946         0.647792
 C         0.368857        -1.212974         0.129026
 C         1.501631         0.239645         1.967856
 O         2.047469        -0.565403         3.013262
 H        -1.809245         1.668119         2.164017
 H        -1.684333        -0.033930         1.814253
 H        -1.243810         0.480313         3.531118
 H         0.534122         3.011767         0.730325
 H         1.228735         2.965256         2.360002
 H         3.018037         1.904214         1.087985
 H        -0.156568        -1.762343         0.944563
 H        -0.412158        -0.941681        -0.559161
 H         1.122040        -1.952375        -0.326701
 H         1.707542        -0.147149         3.802592
