19
Iteration:   605charge 0 multiplicity 1
 C        -1.082996         0.710790         2.484133
 C         0.291664         1.011617         1.854330
 C         0.818298         2.341448         1.347567
 C         2.225097         1.423191         1.094740
 O         1.890217         0.729252        -0.092801
 C         0.918837        -0.024916         0.718269
 C         0.355036        -1.265903         0.135735
 C         1.629077         0.269661         1.986470
 O         1.862299        -0.572027         3.146117
 H        -1.110426         0.412738         3.517003
 H        -1.612328         1.662967         2.484519
 H        -1.696926         0.054679         1.815929
 H         0.290827         2.786271         0.456428
 H         1.090769         3.125495         2.068151
 H         3.144946         1.921060         1.164943
 H        -0.195878        -1.934023         0.870156
 H        -0.227852        -1.088806        -0.739456
 H         1.343101        -1.820823        -0.161841
 H         1.633122         0.010834         3.924727
