19
Iteration:  1516
 C        -1.229223         0.703855         2.275125
 C         0.224617         0.912287         1.716332
 C         0.896837         2.271727         1.458387
 C         2.199711         1.436837         1.244030
 O         1.798315         0.686170         0.001409
 C         0.957523        -0.062806         0.756893
 C         0.291444        -1.171891         0.038559
 C         1.577789         0.276621         2.070437
 O         2.165450        -0.453643         3.097530
 H        -1.908098         1.587904         2.281642
 H        -1.797578        -0.134321         1.836100
 H        -1.085825         0.360643         3.276881
 H         0.602604         3.097593         0.748764
 H         0.947216         2.770472         2.380460
 H         3.293551         1.548514         1.509532
 H        -0.671076        -1.451615         0.581046
 H        -0.210832        -0.773483        -0.928776
 H         0.907392        -1.934113        -0.242462
 H         2.044711         0.046253         3.965779
