19
Iteration:  4957charge 0 multiplicity 1
 C        -1.042666         0.692325         2.428622
 C         0.280023         1.016866         1.827266
 C         0.877659         2.321264         1.499170
 C         2.187434         1.459879         1.178596
 O         1.742071         0.792572        -0.106402
 C         0.917093        -0.019068         0.666583
 C         0.464586        -1.388256         0.171093
 C         1.573119         0.315014         2.042658
 O         1.842486        -0.506326         3.072719
 H        -1.083204         0.863319         3.570738
 H        -1.819589         1.439987         2.002458
 H        -1.264720        -0.321429         2.058255
 H         0.709109         3.185599         0.742239
 H         1.030800         2.959809         2.374760
 H         3.117676         2.100058         1.120562
 H         0.148712        -1.271726        -0.900804
 H         1.300422        -1.972282         0.079299
 H        -0.324080        -1.809734         0.722787
 H         2.292064        -1.282533         2.714454
