19
Iteration:   251charge 0 multiplicity 1
 C        -1.064961         0.817038         2.461545
 C         0.146641         1.024979         1.666110
 C         0.932466         2.271787         1.407674
 C         2.178258         1.513905         1.078842
 O         1.892806         0.711239        -0.088664
 C         0.923735        -0.045165         0.777596
 C         0.474907        -1.342915         0.201916
 C         1.543427         0.278190         2.017091
 O         1.826077        -0.577286         3.093028
 H        -0.787138         0.868127         3.525825
 H        -1.990920         1.446277         2.194750
 H        -1.479281        -0.197761         2.446522
 H         0.478330         2.944783         0.626516
 H         1.132983         2.843833         2.334577
 H         3.163938         2.058375         1.032832
 H         0.229304        -2.100053         0.988151
 H        -0.455645        -1.188033        -0.419175
 H         1.286606        -1.746642        -0.349375
 H         1.859790        -0.047934         3.921750
