19
Iteration:  3501charge 0 multiplicity 1
 C        -1.077708         0.670224         2.366510
 C         0.292868         1.013974         1.885627
 C         0.885967         2.319539         1.461337
 C         2.135255         1.427059         1.154463
 O         1.853836         0.735942        -0.082391
 C         0.979505        -0.094617         0.725800
 C         0.282765        -1.226188        -0.022377
 C         1.585105         0.277341         2.058648
 O         1.982747        -0.479481         3.144529
 H        -1.448345         1.382178         3.087604
 H        -1.859395         0.546786         1.458315
 H        -0.961122        -0.272282         2.854561
 H         0.341225         2.897170         0.602968
 H         1.123192         3.063948         2.360920
 H         3.204046         1.677855         1.286582
 H        -0.249609        -1.746384         0.827205
 H        -0.380870        -0.841462        -0.745761
 H         1.035098        -1.878789        -0.502062
 H         1.369806        -0.337747         3.925768
