19
Iteration:  3993charge 0 multiplicity 1
 C        -1.099984         0.730109         2.369740
 C         0.193882         0.944085         1.699445
 C         0.834904         2.347424         1.471733
 C         2.186043         1.507737         1.127667
 O         1.821415         0.724008        -0.062656
 C         0.977023        -0.033584         0.717388
 C         0.326559        -1.159892         0.175720
 C         1.544295         0.246624         2.110122
 O         2.058206        -0.684064         3.063243
 H        -1.285157         1.664337         2.932181
 H        -1.756285         0.627564         1.555001
 H        -0.911546        -0.032615         3.031613
 H         0.358301         2.840230         0.553637
 H         1.022116         2.977192         2.386568
 H         3.151906         1.949443         1.353572
 H        -0.325891        -1.586534         0.922775
 H        -0.202979        -0.745197        -0.622799
 H         0.955508        -1.887433        -0.378466
 H         1.927158        -0.204541         3.900848
