19
Iteration:   857charge 0 multiplicity 1
 C        -1.093387         0.673517         2.611173
 C         0.167618         0.975980         1.689461
 C         0.998752         2.285801         1.565350
 C         2.174651         1.497375         1.246327
 O         1.922171         0.741029        -0.112106
 C         0.938933         0.017612         0.582521
 C         0.325278        -1.334030         0.077583
 C         1.514039         0.374555         1.968322
 O         1.863528        -0.554132         3.001280
 H        -1.882759         0.433103         1.818121
 H        -0.999867        -0.180727         3.360384
 H        -1.497813         1.614565         3.142904
 H         0.922426         3.147046         0.855363
 H         1.143823         2.725723         2.515212
 H         3.201254         1.786685         1.285804
 H        -0.123023        -1.908763         0.817998
 H        -0.409018        -1.038644        -0.670942
 H         1.159648        -2.011008        -0.432475
 H         2.156686        -0.205548         3.889789
