19
Iteration:  2844
 C        -1.104466         0.686842         2.208267
 C         0.250044         1.002789         1.832791
 C         0.952984         2.288100         1.441962
 C         2.139803         1.355707         1.232460
 O         1.877201         0.697123        -0.032338
 C         0.830924        -0.011532         0.732762
 C         0.127338        -1.197512         0.123025
 C         1.572032         0.228631         2.087799
 O         2.146314        -0.358660         3.154991
 H        -1.414720         0.864328         3.222797
 H        -1.755529         1.283540         1.482205
 H        -1.298992        -0.368676         1.932453
 H         0.592776         2.828727         0.596520
 H         0.938070         2.946182         2.334792
 H         3.259881         1.880040         1.449954
 H        -0.462372        -1.899905         0.744382
 H        -0.404437        -0.875704        -0.720230
 H         0.952890        -1.812890        -0.197236
 H         2.553954        -1.247231         3.003631
