19
Iteration:  2417charge 0 multiplicity 1
 C        -1.143692         0.704578         2.322783
 C         0.228071         1.013803         1.737208
 C         0.938378         2.311691         1.448949
 C         2.219124         1.398111         1.166817
 O         1.853742         0.738871        -0.054290
 C         0.866065        -0.020045         0.725834
 C         0.283489        -1.207759         0.196997
 C         1.486247         0.306812         2.111112
 O         2.074388        -0.574881         3.036252
 H        -1.173148         0.987330         3.427977
 H        -1.956717         1.279941         1.783467
 H        -1.374679        -0.387448         2.367766
 H         0.501001         2.841420         0.582143
 H         1.230635         2.859672         2.370103
 H         3.210292         1.651607         1.150410
 H        -0.297035        -1.829989         0.960337
 H        -0.275318        -0.969465        -0.797718
 H         1.122907        -1.871660        -0.225290
 H         2.188525        -0.030568         3.859935
