19
Iteration:   176
 C        -1.122310         0.707340         2.247883
 C         0.157395         0.980284         1.573204
 C         0.920520         2.258413         1.550805
 C         2.155777         1.435485         1.242805
 O         1.921875         0.658270        -0.030015
 C         0.910721        -0.106879         0.756994
 C         0.141868        -1.233087         0.121624
 C         1.563392         0.238507         2.029662
 O         2.189219        -0.298992         3.134281
 H        -1.356484         1.476142         2.932496
 H        -2.014706         0.512600         1.636094
 H        -1.050985        -0.207730         2.871001
 H         0.585119         3.015925         0.888007
 H         1.014597         2.579662         2.583853
 H         3.248649         1.747438         1.110975
 H        -0.792569        -1.633128         0.655431
 H        -0.161432        -0.851470        -0.870890
 H         0.833707        -2.025562        -0.064167
 H         1.757535        -0.476451         4.019985
