19
Iteration:  1914
 C        -1.124225         0.688983         2.367760
 C         0.171633         0.935906         1.698738
 C         0.913630         2.253023         1.519557
 C         2.145976         1.437189         1.227668
 O         1.934843         0.786349        -0.121597
 C         0.955075        -0.038278         0.681732
 C         0.252174        -1.172079         0.147101
 C         1.536457         0.257960         2.061184
 O         2.035939        -0.548751         3.083430
 H        -1.587970         1.610185         2.533539
 H        -1.815742         0.048093         1.760208
 H        -0.822826         0.182946         3.355317
 H         0.626218         2.894958         0.669519
 H         1.020646         2.927925         2.373936
 H         3.180568         1.962202         1.409013
 H        -0.300700        -1.738580         0.852095
 H        -0.510160        -0.959657        -0.519091
 H         1.066348        -1.844249        -0.427085
 H         1.964335         0.000333         3.862198
