19
Iteration:  1837charge 0 multiplicity 1
 C        -1.222475         0.768111         2.212835
 C         0.171331         0.922121         1.679828
 C         0.926581         2.246245         1.486244
 C         2.172550         1.510400         1.256691
 O         1.878462         0.787855        -0.009809
 C         0.911999        -0.059781         0.771737
 C         0.232508        -1.326348         0.140637
 C         1.616709         0.303588         2.053898
 O         2.145496        -0.519813         3.042775
 H        -1.165253         1.039970         3.271849
 H        -1.863721         1.589895         1.828319
 H        -1.554717        -0.316969         2.276897
 H         0.616386         2.949016         0.774932
 H         0.999624         2.634945         2.482816
 H         3.142532         1.960226         1.231510
 H        -0.273082        -1.851303         0.881802
 H        -0.449234        -1.073885        -0.566684
 H         0.982511        -2.122375        -0.229536
 H         2.036314        -0.228087         4.002529
