19
Iteration:  3787charge 0 multiplicity 1
 C        -1.114226         0.801756         2.250348
 C         0.223495         0.986099         1.832365
 C         0.921428         2.320263         1.553879
 C         2.135379         1.491983         1.153657
 O         1.746246         0.754373        -0.137528
 C         0.907926        -0.023034         0.731655
 C         0.419007        -1.271083         0.252582
 C         1.606727         0.246983         2.094110
 O         2.030902        -0.614266         2.995339
 H        -1.433168         1.248738         3.189720
 H        -1.750522         1.346936         1.447241
 H        -1.369693        -0.271329         2.286523
 H         0.562007         3.028699         0.907385
 H         1.135531         2.698474         2.562275
 H         3.121470         1.917528         1.014556
 H         0.208702        -2.012803         1.065526
 H        -0.345880        -1.290964        -0.487618
 H         1.291448        -1.798623        -0.246837
 H         1.507157        -0.502163         3.817645
