19
Iteration:  3034charge 0 multiplicity 1
 C        -1.239095         0.706246         2.195682
 C         0.229891         0.977840         1.866636
 C         0.962774         2.249711         1.471865
 C         2.214939         1.366236         1.223231
 O         1.840368         0.674336        -0.046719
 C         1.018959        -0.133564         0.743967
 C         0.153021        -1.105473         0.117318
 C         1.523828         0.268460         2.065788
 O         2.113287        -0.401248         3.136414
 H        -1.763512         1.482178         2.810697
 H        -1.893331         0.445618         1.409536
 H        -1.254298        -0.233811         2.796570
 H         0.771904         2.897416         0.695803
 H         1.110425         2.935373         2.239733
 H         3.163190         1.819550         1.327868
 H        -0.534989        -1.496371         0.819344
 H        -0.396107        -0.636253        -0.679327
 H         0.672612        -1.950296        -0.303313
 H         3.054649        -0.346408         2.952577
