19
Iteration:  1864
 C        -1.201430         0.638028         2.120284
 C         0.238992         0.989748         1.915870
 C         0.883400         2.282460         1.488070
 C         2.154702         1.468377         1.250897
 O         1.783843         0.673162        -0.124513
 C         0.980062        -0.016569         0.770882
 C         0.266747        -1.118142         0.146288
 C         1.636754         0.226203         2.041471
 O         2.171782        -0.528747         3.111695
 H        -1.707569         1.349436         2.866242
 H        -1.762035         1.081378         1.291107
 H        -1.246336        -0.348902         2.527551
 H         0.396213         2.919141         0.651408
 H         0.999055         2.941637         2.410920
 H         3.257724         1.699169         1.297807
 H        -0.515996        -1.599280         0.881095
 H        -0.558651        -0.752414        -0.635773
 H         0.862787        -1.913068        -0.186957
 H         2.043143        -0.093599         4.006144
