19
Iteration:  4317
 C        -1.147520         0.809077         2.365804
 C         0.249018         0.988767         1.780707
 C         0.888900         2.310160         1.512611
 C         2.209440         1.451013         1.240427
 O         1.895139         0.748315        -0.125668
 C         0.858122        -0.027585         0.739850
 C         0.408304        -1.392690         0.190142
 C         1.567186         0.335886         2.005784
 O         1.938802        -0.573786         2.977401
 H        -1.028391         1.055500         3.419256
 H        -2.058888         1.367743         1.963956
 H        -1.267665        -0.324857         2.371066
 H         0.760998         2.998977         0.637200
 H         0.926805         3.027327         2.402126
 H         3.126317         1.972454         1.218397
 H         0.495740        -2.151042         0.955473
 H        -0.645943        -1.154111        -0.128690
 H         1.008577        -1.668090        -0.602623
 H         1.497855        -0.372335         3.813185
