19
Iteration:  1953charge 0 multiplicity 1
 C        -1.015427         0.797982         2.500539
 C         0.224983         0.984502         1.726173
 C         0.927251         2.308068         1.519156
 C         2.159932         1.546863         1.150552
 O         1.833437         0.781003        -0.129382
 C         0.898127        -0.017665         0.766571
 C         0.475124        -1.345284         0.055401
 C         1.508438         0.246965         2.014020
 O         1.877120        -0.647800         3.060622
 H        -1.719145         1.736818         2.501672
 H        -1.737984         0.067174         2.145171
 H        -0.821581         0.658643         3.549344
 H         0.496173         2.870953         0.638718
 H         1.095955         2.850162         2.456081
 H         3.103960         1.951208         1.192554
 H         0.178675        -2.157230         0.746531
 H        -0.284332        -0.968394        -0.764819
 H         1.358999        -1.730544        -0.345871
 H         1.375650        -0.428937         3.894266
