19
Iteration:  4050
 C        -1.252101         0.788515         2.142683
 C         0.224483         0.999152         1.716588
 C         0.982720         2.348218         1.582633
 C         2.148352         1.513013         1.199839
 O         1.759116         0.751330        -0.041398
 C         0.896373         0.007432         0.790835
 C         0.240310        -1.257676         0.241988
 C         1.570589         0.235621         2.013280
 O         2.257385        -0.677600         3.051917
 H        -1.820991         1.214466         2.954794
 H        -1.924310         0.946777         1.312812
 H        -1.478718        -0.250856         2.180172
 H         0.722342         3.058982         0.747193
 H         1.192090         2.845959         2.641217
 H         3.113113         1.964164         1.116160
 H        -0.027157        -1.931669         1.028388
 H        -0.618595        -1.358683        -0.389853
 H         1.046957        -1.939952        -0.130295
 H         2.366857        -0.099959         3.825669
