19
Iteration:  2887
 C        -1.131379         0.821421         2.301276
 C         0.207446         0.936269         1.714840
 C         0.891720         2.280175         1.507907
 C         2.210242         1.521385         1.187680
 O         1.846059         0.723536        -0.051281
 C         0.889763        -0.101778         0.724914
 C         0.313336        -1.312994         0.190720
 C         1.600589         0.268652         2.032742
 O         1.984490        -0.451329         3.132551
 H        -1.144282         0.785603         3.375589
 H        -1.743279         1.712959         2.002887
 H        -1.587679        -0.083026         1.921503
 H         0.574895         3.008183         0.815916
 H         1.161710         2.684355         2.512946
 H         3.377502         1.856286         1.185729
 H        -0.316141        -1.942352         0.837808
 H        -0.316978        -0.983409        -0.560400
 H         1.062583        -1.906057        -0.267924
 H         2.417372        -1.198632         2.670024
