19
Iteration:  1260
 C        -1.088569         0.694863         2.417944
 C         0.237441         0.957937         1.723743
 C         0.911892         2.285236         1.584308
 C         2.225874         1.476412         1.278667
 O         1.935855         0.760039        -0.035151
 C         0.892516        -0.033192         0.685162
 C         0.212094        -1.198966        -0.027064
 C         1.502664         0.247001         1.986650
 O         2.029279        -0.536042         3.045127
 H        -0.948324         0.367031         3.468689
 H        -1.693330         1.628173         2.566500
 H        -1.657460        -0.149308         1.909226
 H         0.551170         2.951630         0.722426
 H         1.120711         2.966944         2.474252
 H         3.258767         1.725649         1.364136
 H        -0.142883        -1.903035         0.735291
 H        -0.544588        -0.837239        -0.684396
 H         0.954590        -1.893767        -0.626612
 H         1.497036        -0.349490         3.823374
