19
Iteration:  4048
 C        -1.251917         0.783577         2.134898
 C         0.227830         0.981753         1.710282
 C         0.984107         2.357200         1.588644
 C         2.137449         1.481340         1.206994
 O         1.753789         0.752510        -0.034632
 C         0.915390        -0.007143         0.798320
 C         0.230528        -1.230013         0.254557
 C         1.557442         0.228504         1.995175
 O         2.254087        -0.656439         3.034691
 H        -1.814835         1.288388         3.018997
 H        -1.902585         0.942152         1.243760
 H        -1.375242        -0.284834         2.251446
 H         0.753186         3.071397         0.736554
 H         1.165586         2.821283         2.606916
 H         3.111817         1.955557         1.184930
 H         0.010807        -1.874347         1.094937
 H        -0.558395        -1.343577        -0.404439
 H         1.086291        -1.887426        -0.115580
 H         2.349802        -0.128590         3.822538
