19
Iteration:  4402
 C        -1.173646         0.589235         2.403558
 C         0.130518         0.972937         1.697793
 C         0.961636         2.339205         1.556046
 C         2.314699         1.346218         1.197390
 O         1.838074         0.729494        -0.125816
 C         0.910102        -0.046139         0.659001
 C         0.273061        -1.212931         0.029886
 C         1.496610         0.316155         2.036643
 O         2.083502        -0.374907         3.179177
 H        -1.419343         1.059150         3.400479
 H        -2.009260         0.632912         1.708643
 H        -1.108053        -0.517544         2.768638
 H         0.705076         3.044671         0.818132
 H         1.233201         2.728853         2.565500
 H         3.346244         1.622740         1.145699
 H        -0.747833        -1.407828         0.473833
 H         0.111969        -1.187118        -1.169518
 H         0.913893        -2.097752         0.126663
 H         1.834003         0.040475         4.049467
