19
Iteration:  1366charge 0 multiplicity 1
 C        -1.132612         0.833805         2.352134
 C         0.244472         0.967967         1.797690
 C         0.906232         2.347453         1.575337
 C         2.153284         1.468832         1.222676
 O         1.842358         0.818615        -0.053650
 C         0.946221        -0.018218         0.672134
 C         0.431964        -1.302554         0.140636
 C         1.549902         0.253663         2.052664
 O         1.954389        -0.708939         2.936824
 H        -1.393524        -0.193449         2.431424
 H        -1.248929         1.309933         3.349183
 H        -1.818913         1.419097         1.716800
 H         0.589030         2.886102         0.724894
 H         0.834476         2.855548         2.551681
 H         3.208670         1.811296         1.031992
 H        -0.273002        -1.679067         0.966006
 H        -0.215376        -1.170456        -0.696498
 H         1.236460        -2.010946        -0.079543
 H         1.700302        -0.356488         3.817153
