19
Iteration:  4921charge 0 multiplicity 1
 C        -1.069457         0.768718         2.484936
 C         0.209849         0.957502         1.733592
 C         0.872126         2.280206         1.496630
 C         2.170211         1.560726         1.135642
 O         1.800065         0.738301        -0.144462
 C         0.972043         0.005577         0.737779
 C         0.488019        -1.288837         0.113094
 C         1.586473         0.280594         2.032449
 O         1.829414        -0.594476         3.110115
 H        -0.973207         1.220236         3.510088
 H        -1.947909         1.173490         1.893441
 H        -1.370407        -0.241050         2.750818
 H         0.363137         2.940678         0.759184
 H         1.055508         2.655286         2.512414
 H         3.050994         2.328337         0.982514
 H         0.089688        -1.214106        -0.886582
 H         1.135879        -2.037762         0.151951
 H        -0.387048        -1.682812         0.746960
 H         2.710935        -0.974096         3.026205
