19
Iteration:  2240charge 0 multiplicity 1
 C        -1.224041         0.761147         2.247280
 C         0.313574         0.914205         1.865167
 C         0.885507         2.315541         1.560894
 C         2.168187         1.412280         1.145190
 O         1.810329         0.711364        -0.140848
 C         0.877784         0.006784         0.838299
 C         0.197703        -1.210025         0.101419
 C         1.632927         0.292413         2.088423
 O         2.228108        -0.599776         3.091072
 H        -1.794554         1.783440         2.273348
 H        -1.679890         0.369605         1.345124
 H        -1.522608         0.067379         3.030073
 H         0.455725         2.933574         0.711186
 H         0.931337         2.998251         2.443080
 H         3.196144         1.908517         1.221908
 H        -0.727021        -1.632876         0.497231
 H        -0.083546        -0.789671        -1.025360
 H         1.051689        -1.952883        -0.061864
 H         1.908555        -0.145798         3.916028
