19
Iteration:  1177charge 0 multiplicity 1
 C        -1.146380         0.779527         2.387261
 C         0.185455         1.031599         1.787829
 C         0.948750         2.328472         1.587918
 C         2.214123         1.469425         1.225188
 O         1.861634         0.798038        -0.092417
 C         0.957220         0.029480         0.714475
 C         0.373632        -1.167088         0.139921
 C         1.526968         0.220774         2.044344
 O         1.954548        -0.795642         2.925399
 H        -1.551082         1.480815         3.133675
 H        -1.878690         0.688390         1.607048
 H        -1.133129        -0.188344         2.825742
 H         0.743771         2.901293         0.667369
 H         0.830560         2.896454         2.519446
 H         3.265943         1.920438         1.128024
 H        -0.133923        -1.716939         0.983936
 H        -0.525421        -0.988458        -0.573479
 H         1.098329        -1.785438        -0.361893
 H         2.067347        -0.316797         3.802140
