19
Iteration:  1282
 C        -1.146730         0.650086         2.309764
 C         0.278350         0.894136         1.787708
 C         0.872883         2.261626         1.462871
 C         2.221787         1.450290         1.204176
 O         1.833007         0.772227        -0.063997
 C         1.002343        -0.025168         0.755590
 C         0.173519        -1.001041         0.017922
 C         1.613241         0.209154         2.086634
 O         2.061640        -0.622335         3.142032
 H        -1.162638         0.259588         3.343414
 H        -1.664104         1.637319         2.442934
 H        -1.755362        -0.068432         1.674114
 H         0.455841         3.041953         0.750355
 H         1.069015         2.865715         2.414808
 H         3.153378         1.877884         0.975610
 H        -0.492964        -1.602629         0.629152
 H        -0.319155        -0.528651        -0.807988
 H         0.920104        -1.808917        -0.420517
 H         1.862857        -0.107644         3.965537
