19
Iteration:   681
 C        -1.128861         0.787325         2.381954
 C         0.151814         0.935139         1.666782
 C         0.937802         2.312594         1.446051
 C         2.173560         1.412604         1.196215
 O         1.895692         0.828106        -0.084436
 C         0.899652        -0.060979         0.687060
 C         0.327737        -1.335614         0.245405
 C         1.500457         0.294486         2.003168
 O         2.069258        -0.520651         3.041751
 H        -0.900764         0.627386         3.455470
 H        -1.743520         1.687242         2.351681
 H        -1.626934        -0.192673         2.160556
 H         0.616225         3.001174         0.637127
 H         0.929767         2.765778         2.425714
 H         3.133720         1.561153         1.515843
 H        -0.149177        -1.796547         1.131606
 H        -0.356940        -1.249594        -0.571950
 H         1.165375        -2.015191        -0.121860
 H         1.709203        -0.209092         3.875998
