19
Iteration:   467charge 0 multiplicity 1
 C        -1.126186         0.788569         2.494761
 C         0.209890         0.964764         1.740585
 C         0.900022         2.285176         1.407138
 C         2.266611         1.512654         1.245453
 O         1.926071         0.787141        -0.065886
 C         0.906671        -0.080609         0.686127
 C         0.393846        -1.376580         0.265809
 C         1.483676         0.364065         1.957527
 O         1.943278        -0.563861         2.927829
 H        -1.509895         1.678788         3.175874
 H        -1.836883         0.707112         1.633178
 H        -1.203879        -0.127119         3.057738
 H         0.623572         2.866308         0.513972
 H         0.748683         2.879159         2.285877
 H         3.250763         1.855473         1.410580
 H         0.074492        -1.883947         1.166889
 H        -0.549904        -1.156626        -0.386893
 H         1.144720        -2.063490        -0.277158
 H         1.498855        -0.580250         3.759132
