19
Iteration:  4401charge 0 multiplicity 1
 C        -1.176448         0.593168         2.412463
 C         0.127167         0.974702         1.690352
 C         0.967462         2.344729         1.552467
 C         2.312701         1.355634         1.202251
 O         1.835417         0.726221        -0.128855
 C         0.909422        -0.062126         0.655867
 C         0.276507        -1.203210         0.027481
 C         1.492880         0.316412         2.035034
 O         2.082488        -0.385624         3.184222
 H        -1.402134         1.030116         3.411282
 H        -1.990145         0.610251         1.755517
 H        -1.082745        -0.491160         2.738848
 H         0.689459         3.011849         0.792943
 H         1.233652         2.746672         2.537032
 H         3.362311         1.639080         1.177651
 H        -0.737040        -1.411198         0.475135
 H         0.116627        -1.161388        -1.120991
 H         0.949983        -2.089965         0.111215
 H         1.817374         0.082057         4.029526
