19
Iteration:  3186
 C        -1.146747         0.794888         2.312277
 C         0.257169         0.962359         1.812964
 C         0.946539         2.285208         1.469392
 C         2.176595         1.467561         1.137010
 O         1.827938         0.747032        -0.125677
 C         0.913940        -0.017280         0.717302
 C         0.279241        -1.255573         0.139523
 C         1.613290         0.244240         2.051617
 O         1.962374        -0.562124         3.211759
 H        -1.221314         1.421771         3.143703
 H        -1.865681         1.169287         1.628906
 H        -1.351280        -0.263605         2.589482
 H         0.440349         2.738424         0.593561
 H         0.937043         2.886019         2.390291
 H         3.169809         1.943993         1.094337
 H        -0.586417        -1.527912         0.710179
 H        -0.008812        -1.052876        -0.844388
 H         1.017528        -2.047487         0.120252
 H         2.898353        -0.761521         3.229618
