19
Iteration:  1466charge 0 multiplicity 1
 C        -1.108017         0.631964         2.274604
 C         0.295933         0.922627         1.724635
 C         0.880290         2.337095         1.534272
 C         2.178698         1.419395         1.150282
 O         1.853495         0.768685        -0.052579
 C         1.018290        -0.097799         0.780165
 C         0.213288        -1.164060         0.109186
 C         1.581547         0.255866         2.078692
 O         2.026541        -0.515151         3.111943
 H        -1.773082         1.034893         1.508824
 H        -1.444364        -0.420486         2.360213
 H        -1.326381         1.162384         3.263456
 H         0.656817         2.933430         0.690287
 H         0.891963         3.083833         2.409136
 H         3.100166         1.996851         1.147491
 H        -0.439028        -1.725326         0.774312
 H        -0.531770        -0.751268        -0.487494
 H         0.881268        -1.793674        -0.597202
 H         1.751422        -0.002898         3.871002
