19
Iteration:  3877charge 0 multiplicity 1
 C        -1.206290         0.719958         2.299715
 C         0.223427         0.941760         1.750599
 C         0.862282         2.298993         1.478480
 C         2.215035         1.478995         1.162677
 O         1.828857         0.687238        -0.067286
 C         0.931013        -0.022493         0.777025
 C         0.309581        -1.180271         0.163351
 C         1.610786         0.273516         2.101093
 O         2.109370        -0.551222         3.044566
 H        -1.259544         0.483990         3.370058
 H        -1.890142         1.625932         2.178886
 H        -1.760627        -0.260096         1.971659
 H         0.614660         2.833042         0.617717
 H         0.959339         2.851543         2.399037
 H         3.177051         2.000770         1.056305
 H        -0.335098        -1.698313         0.871173
 H        -0.283131        -0.913605        -0.781138
 H         1.037350        -1.877386        -0.302854
 H         1.944227        -0.109899         3.895698
