19
Iteration:   436charge 0 multiplicity 1
 C        -0.986493         0.703437         2.493178
 C         0.222498         0.997234         1.659510
 C         0.893135         2.327332         1.374581
 C         2.234422         1.553874         1.068882
 O         1.837007         0.720453        -0.101824
 C         0.909708         0.008009         0.753786
 C         0.421855        -1.231430         0.190377
 C         1.554430         0.291829         2.041992
 O         1.809990        -0.668083         3.146839
 H        -1.546552         1.591464         2.945832
 H        -1.715981         0.137895         1.793578
 H        -0.700643        -0.119321         3.186110
 H         0.517104         2.949985         0.519196
 H         0.819137         2.856901         2.374330
 H         3.242765         2.005878         1.123270
 H        -0.029099        -1.998274         0.951314
 H        -0.377254        -0.890797        -0.638791
 H         1.288464        -1.786949        -0.278004
 H         1.709787        -0.149293         4.019475
