19
Iteration:  4063
 C        -1.293551         0.784178         2.121179
 C         0.172377         1.022090         1.835523
 C         0.935051         2.322322         1.554065
 C         2.219408         1.514491         1.119374
 O         1.788993         0.785545        -0.068627
 C         0.842783        -0.000700         0.751410
 C         0.273356        -1.384783         0.216414
 C         1.661707         0.259310         2.144275
 O         2.198336        -0.674825         3.048479
 H        -1.385625         1.201881         3.071961
 H        -1.776401         1.397340         1.387928
 H        -1.430297        -0.310808         2.168633
 H         0.470974         3.041664         0.864098
 H         1.099709         2.890403         2.547272
 H         3.220342         1.963181         1.010386
 H        -0.094090        -1.899958         1.111169
 H        -0.523260        -0.981658        -0.487459
 H         0.990978        -1.837659        -0.435209
 H         2.457462        -0.203774         3.886109
