19
Iteration:   365charge 0 multiplicity 1
 C        -1.247954         0.723795         2.288785
 C         0.177551         0.932102         1.677680
 C         0.893253         2.239059         1.461123
 C         2.154107         1.474190         1.280513
 O         1.902045         0.705740        -0.015465
 C         0.907278        -0.085440         0.795204
 C         0.214817        -1.209686         0.090778
 C         1.620855         0.226198         2.004771
 O         2.247758        -0.366348         3.112334
 H        -1.678342         1.600820         2.811159
 H        -1.899022         0.412333         1.475399
 H        -1.297809        -0.175273         2.958520
 H         0.604135         2.800315         0.588431
 H         0.938074         2.810378         2.373869
 H         3.258741         1.705656         1.180819
 H        -0.682631        -1.584743         0.657185
 H        -0.143761        -0.742828        -0.812272
 H         0.888702        -2.097271        -0.093688
 H         1.549762        -0.516474         3.836606
