19
Iteration:  3775charge 0 multiplicity 1
 C        -1.225468         0.735852         2.342550
 C         0.272172         0.954170         1.788165
 C         0.960791         2.325404         1.555982
 C         2.214442         1.453815         1.138109
 O         1.798699         0.777691        -0.117548
 C         0.822418         0.043226         0.769910
 C         0.439235        -1.304607         0.230071
 C         1.600035         0.270159         1.936006
 O         2.015982        -0.599631         3.037046
 H        -1.320672         1.412134         3.241323
 H        -1.991251         0.956744         1.511410
 H        -1.467311        -0.283258         2.608015
 H         0.552786         2.831434         0.804549
 H         1.054957         3.017617         2.404163
 H         3.264131         1.798547         1.205430
 H        -0.045931        -1.969152         1.026376
 H        -0.320102        -1.080623        -0.474783
 H         1.393824        -1.662676        -0.238220
 H         1.402824        -0.365655         3.773577
