19
Iteration:  3224charge 0 multiplicity 1
 C        -1.224409         0.702231         2.224565
 C         0.253035         0.983875         1.771772
 C         0.971734         2.302449         1.572085
 C         2.194178         1.453977         1.170218
 O         1.880389         0.678358        -0.077235
 C         0.846594        -0.092683         0.770070
 C         0.106892        -1.202601         0.008982
 C         1.641016         0.231732         2.085282
 O         2.137150        -0.363363         3.233211
 H        -1.574518         1.367969         3.134716
 H        -1.945162         0.630607         1.335715
 H        -1.337578        -0.181097         2.885915
 H         0.797433         2.968379         0.707098
 H         1.082946         3.007616         2.412449
 H         3.236831         1.793291         1.244792
 H        -0.700875        -1.783942         0.483393
 H        -0.198250        -0.973037        -1.068264
 H         0.807182        -2.062816        -0.008670
 H         2.645505        -1.105287         2.861554
