19
Iteration:  2402charge 0 multiplicity 1
 C        -1.112584         0.750345         2.435503
 C         0.170110         1.040438         1.668191
 C         0.979795         2.360754         1.453419
 C         2.179954         1.394363         1.232655
 O         1.839223         0.697781        -0.069696
 C         0.817667         0.066394         0.726115
 C         0.364707        -1.314908         0.128375
 C         1.529273         0.249421         1.978983
 O         2.023449        -0.580292         3.060990
 H        -0.993523         0.888966         3.565906
 H        -1.963129         1.356175         2.259621
 H        -1.324351        -0.263066         2.159770
 H         0.899247         3.042466         0.526478
 H         0.786033         3.016022         2.341150
 H         3.320310         1.894178         1.408311
 H         0.090333        -1.879587         0.966343
 H        -0.473953        -1.285950        -0.612289
 H         1.243835        -1.873937        -0.173815
 H         2.020117        -0.098358         3.919813
