19
Iteration:  4799
 C        -1.134925         0.654346         2.319066
 C         0.220349         0.887333         1.707851
 C         0.916523         2.311832         1.571310
 C         2.193658         1.478734         1.189570
 O         1.901042         0.746522        -0.073462
 C         0.936960        -0.066360         0.739084
 C         0.223745        -1.268136         0.131575
 C         1.539858         0.257896         2.030067
 O         2.007805        -0.396278         3.099280
 H        -1.338204         1.296177         3.198861
 H        -1.854433         1.139537         1.608679
 H        -1.499720        -0.412109         2.557079
 H         0.663532         3.045151         0.757054
 H         1.154188         2.807834         2.583742
 H         3.093176         2.041804         1.262194
 H        -0.704742        -1.076335        -0.381743
 H         0.747237        -1.800918        -0.573289
 H         0.016197        -2.005347         0.953727
 H         2.985032        -0.463990         3.069021
