19
Iteration:  1548
 C        -1.217705         0.778919         2.396927
 C         0.219979         0.912651         1.740277
 C         0.849115         2.323505         1.511010
 C         2.199100         1.501121         1.178416
 O         1.952545         0.770018        -0.022772
 C         0.932318         0.011424         0.652453
 C         0.356951        -1.355425         0.129958
 C         1.573129         0.256013         1.996744
 O         1.985645        -0.558836         3.014760
 H        -1.622387         1.779150         2.711116
 H        -2.001412         0.111747         1.995001
 H        -1.049975         0.342167         3.356531
 H         0.405311         2.997501         0.733690
 H         1.007585         2.731438         2.450381
 H         3.217879         1.797153         1.501146
 H        -0.322443        -1.789899         0.908542
 H        -0.069497        -1.202296        -0.937890
 H         1.052978        -2.114117         0.106033
 H         1.979241         0.070074         3.733691
