19
Iteration:  2814
 C        -1.178095         0.787524         2.324947
 C         0.235645         0.891626         1.759391
 C         0.916516         2.225488         1.445302
 C         2.176849         1.470743         1.100827
 O         1.841590         0.750690        -0.123989
 C         1.040378        -0.144551         0.764422
 C         0.197824        -1.150096         0.118175
 C         1.673163         0.264039         2.116365
 O         1.986830        -0.480720         3.244549
 H        -1.509907         1.536959         3.025546
 H        -1.909946         0.942768         1.461044
 H        -1.217119        -0.268675         2.770847
 H         0.472139         2.928907         0.670424
 H         0.965641         2.597348         2.497664
 H         3.118933         2.107502         1.135699
 H        -0.591589        -1.662889         0.761268
 H        -0.385287        -0.581768        -0.710861
 H         0.804081        -1.860228        -0.544089
 H         2.812563        -0.955959         3.168104
