19
Iteration:   572charge 0 multiplicity 1
 C        -1.208888         0.706083         2.328679
 C         0.147384         0.935442         1.568893
 C         0.871548         2.347327         1.454152
 C         2.226973         1.448043         1.247777
 O         1.923381         0.694338         0.015303
 C         0.982539        -0.120183         0.753544
 C         0.169030        -1.243991         0.233779
 C         1.616734         0.297833         2.001222
 O         2.156943        -0.469285         3.013645
 H        -1.109759         0.422723         3.348726
 H        -1.715863         1.667344         2.229008
 H        -1.960105        -0.058337         1.955975
 H         0.581455         3.189996         0.762188
 H         0.959881         2.744500         2.494081
 H         3.173697         1.891159         1.267635
 H        -0.599222        -1.596007         1.040380
 H        -0.394702        -0.962316        -0.623319
 H         0.895105        -2.106415        -0.116942
 H         1.792431        -0.002901         3.825197
