19
Iteration:  4004
 C        -1.185954         0.721285         2.283342
 C         0.254020         0.993049         1.798079
 C         0.879585         2.332499         1.458940
 C         2.099780         1.521304         1.183822
 O         1.902627         0.754085        -0.027955
 C         0.971391        -0.013442         0.753535
 C         0.256529        -1.209539         0.172443
 C         1.607409         0.193335         1.999085
 O         2.103689        -0.658604         3.035880
 H        -1.462713         1.631111         2.865973
 H        -2.060525         0.573559         1.708299
 H        -1.355422        -0.023701         2.988666
 H         0.518047         3.072586         0.675392
 H         1.063622         2.922492         2.398344
 H         3.067366         1.963036         0.990014
 H        -0.314978        -1.683059         0.966612
 H        -0.477705        -0.968845        -0.517697
 H         0.942946        -2.026400        -0.159179
 H         1.954230        -0.215442         3.870988
