19
Iteration:  1403
 C        -1.147640         0.794982         2.440912
 C         0.210839         0.963731         1.764859
 C         0.925410         2.337600         1.519839
 C         2.289740         1.462078         1.106083
 O         1.781667         0.809511        -0.009694
 C         0.930363        -0.007144         0.739802
 C         0.518901        -1.297979         0.155150
 C         1.558608         0.305681         2.047952
 O         1.816742        -0.693363         2.944651
 H        -1.842744         0.147901         1.823910
 H        -1.087465         0.397346         3.464149
 H        -1.763379         1.706546         2.320501
 H         0.793655         3.020082         0.627300
 H         0.984121         3.045369         2.422192
 H         3.162602         2.012766         0.908587
 H         0.322089        -1.919772         0.997228
 H        -0.334981        -1.191849        -0.582685
 H         1.421768        -1.860427        -0.414699
 H         1.886386        -0.684468         3.885457
