19
Iteration:  3643
 C        -1.225740         0.738924         2.253241
 C         0.174661         0.997553         1.692691
 C         0.890057         2.248381         1.552120
 C         2.159104         1.445834         1.284219
 O         1.841916         0.714896        -0.077907
 C         0.999077        -0.038043         0.700723
 C         0.268040        -1.246538         0.164685
 C         1.566888         0.226493         2.001978
 O         2.202808        -0.439920         3.083688
 H        -1.354386         1.170217         3.264562
 H        -1.939809         1.330506         1.629426
 H        -1.390213        -0.278590         2.286791
 H         0.585845         2.987551         0.812821
 H         1.043503         2.737932         2.601853
 H         3.246402         1.793097         1.161787
 H        -0.323309        -1.476294         1.090708
 H        -0.312741        -1.096368        -0.689974
 H         0.786919        -2.149176        -0.135598
 H         1.526826        -0.646025         3.794155
