19
Iteration:  4780
 C        -1.123400         0.776462         2.376566
 C         0.223028         1.052015         1.826990
 C         0.873129         2.324943         1.548006
 C         2.134742         1.462671         1.174318
 O         1.908331         0.715161        -0.034633
 C         0.940164        -0.068993         0.662170
 C         0.329612        -1.383254         0.075568
 C         1.528075         0.320825         2.004023
 O         1.983870        -0.443201         3.088740
 H        -1.224840         1.017545         3.454103
 H        -2.009733         1.166640         1.792353
 H        -1.176074        -0.291520         2.461895
 H         0.339821         2.971016         0.803284
 H         1.022958         2.649025         2.520431
 H         3.193100         1.811570         1.118011
 H        -0.576671        -1.126675        -0.562542
 H         1.091963        -1.874636        -0.446125
 H         0.051769        -2.194330         0.884646
 H         2.704791        -1.043271         2.809083
