19
Iteration:   462charge 0 multiplicity 1
 C        -1.093649         0.770659         2.504675
 C         0.216820         0.937662         1.728435
 C         0.923329         2.325660         1.396646
 C         2.194307         1.513526         1.202862
 O         1.915565         0.783566        -0.029128
 C         0.928665        -0.032240         0.680302
 C         0.382462        -1.382187         0.223147
 C         1.507548         0.376567         1.983458
 O         1.917343        -0.588508         2.943628
 H        -1.378229         1.645424         2.984251
 H        -1.847865         0.600567         1.745404
 H        -1.113118        -0.151375         3.137203
 H         0.624877         2.769809         0.434668
 H         0.901143         3.072175         2.245910
 H         3.257586         1.824270         1.459217
 H         0.098639        -1.898486         1.188905
 H        -0.476638        -1.255363        -0.345174
 H         1.068930        -2.059891        -0.207157
 H         1.386299        -0.538736         3.789700
