19
Iteration:  2891
 C        -1.086266         0.860020         2.297467
 C         0.227228         0.941938         1.744060
 C         0.867946         2.250508         1.515036
 C         2.229109         1.499868         1.177530
 O         1.835796         0.741934        -0.081225
 C         0.899757        -0.072519         0.716063
 C         0.320869        -1.329481         0.184595
 C         1.582465         0.275045         2.028266
 O         1.962389        -0.478688         3.158529
 H        -1.034571         0.798426         3.399573
 H        -1.749677         1.703966         2.018806
 H        -1.559059        -0.090287         1.873043
 H         0.331378         2.976084         0.797440
 H         1.019160         2.817077         2.443802
 H         3.304888         1.874685         1.268499
 H        -0.227954        -1.941572         0.903196
 H        -0.386040        -0.991187        -0.661998
 H         1.124685        -2.012494        -0.243159
 H         2.468922        -1.204518         2.722814
