19
Iteration:  4849
 C        -1.117168         0.624146         2.211690
 C         0.288042         0.940140         1.880363
 C         0.873087         2.313857         1.553828
 C         2.174433         1.552348         1.151028
 O         1.822774         0.630076        -0.022589
 C         0.960385        -0.080931         0.802447
 C         0.140706        -1.177100         0.048626
 C         1.672877         0.298284         2.023597
 O         2.051369        -0.356708         3.149500
 H        -1.668490         1.085381         3.034873
 H        -1.761289         0.578792         1.324709
 H        -1.059195        -0.387131         2.596888
 H         0.474803         2.795019         0.670798
 H         1.179502         2.872583         2.420294
 H         3.203440         1.949560         1.285464
 H        -0.630274        -0.619469        -0.560325
 H         0.849901        -1.907101        -0.616788
 H        -0.364071        -1.946088         0.596837
 H         2.442556        -1.192590         2.879801
