19
Iteration:  1427
 C        -1.098069         0.744022         2.399495
 C         0.206106         0.989824         1.764822
 C         0.941757         2.375629         1.542164
 C         2.142417         1.449368         1.216052
 O         1.954379         0.775072        -0.081537
 C         0.864322        -0.000450         0.668577
 C         0.413372        -1.315424         0.181418
 C         1.476529         0.262363         1.969622
 O         1.920908        -0.609193         2.991447
 H        -1.969267         0.310038         1.784924
 H        -0.801708         0.015491         3.166983
 H        -1.659298         1.565236         2.811392
 H         0.773817         3.180722         0.679504
 H         0.872374         2.944745         2.472935
 H         3.213701         1.632633         1.281060
 H         0.282721        -1.971388         1.039644
 H        -0.548905        -1.102429        -0.452350
 H         1.199760        -1.757088        -0.499499
 H         1.832827        -0.294961         3.951581
