19
Iteration:  3554charge 0 multiplicity 1
 C        -1.112558         0.674221         2.348259
 C         0.229760         1.002044         1.745209
 C         0.919692         2.366741         1.457902
 C         2.183736         1.513016         1.230751
 O         1.924536         0.785246        -0.053153
 C         0.928918        -0.028735         0.661939
 C         0.373912        -1.335001         0.259337
 C         1.462761         0.212926         2.010931
 O         1.886650        -0.586487         3.023614
 H        -1.172670         0.951119         3.409303
 H        -1.754063         1.411007         1.896454
 H        -1.440726        -0.279326         2.195055
 H         0.484849         2.915372         0.577919
 H         0.981776         3.098598         2.365789
 H         3.212261         1.932785         1.205594
 H         0.464655        -1.945407         1.116899
 H        -0.593928        -1.174079        -0.089074
 H         0.975635        -1.662423        -0.559163
 H         2.581603        -0.053514         3.487769
