19
Iteration:  3119
 C        -1.113568         0.761650         2.430601
 C         0.252998         1.006222         1.766728
 C         0.964479         2.330842         1.434117
 C         2.279484         1.490591         1.092305
 O         1.842034         0.782343        -0.029119
 C         0.857402         0.009885         0.703481
 C         0.399525        -1.423893         0.130086
 C         1.514590         0.255216         2.053895
 O         1.869211        -0.482343         3.151517
 H        -0.892442         0.868634         3.431724
 H        -1.926910         1.450760         2.170447
 H        -1.409996        -0.286500         2.343238
 H         0.614921         2.758457         0.419640
 H         1.171067         3.010177         2.294709
 H         3.301552         2.035815         0.920183
 H        -0.028654        -1.999782         0.900172
 H        -0.374794        -1.183570        -0.553868
 H         1.230902        -1.940618        -0.394917
 H         1.630052        -1.427776         2.892204
