19
Iteration:  4457
 C        -1.214122         0.719554         2.187805
 C         0.168303         0.827040         1.807630
 C         0.907632         2.245980         1.429305
 C         2.152613         1.522125         1.119344
 O         1.800702         0.846645        -0.048748
 C         0.951277        -0.011540         0.823261
 C         0.240024        -1.192989         0.205949
 C         1.621462         0.297169         2.071634
 O         2.232657        -0.613207         3.122577
 H        -1.529829         1.484590         2.909950
 H        -1.804988         0.971407         1.376528
 H        -1.488163        -0.322009         2.548803
 H         0.548600         2.838586         0.641270
 H         1.233187         2.979311         2.228537
 H         3.115483         1.974920         1.083858
 H        -0.876496        -1.261688         0.248693
 H         0.645633        -1.301210        -0.930913
 H         0.531474        -2.072757         0.732886
 H         1.732911        -0.672841         3.953121
