19
Iteration:  3858
 C        -1.213393         0.734195         2.233876
 C         0.130871         1.053579         1.778339
 C         0.901732         2.378417         1.471973
 C         2.156742         1.510323         1.264978
 O         1.910687         0.694036         0.007936
 C         0.922449        -0.128618         0.789561
 C         0.224717        -1.308030         0.193081
 C         1.595489         0.310040         2.050006
 O         2.185942        -0.581392         2.931022
 H        -1.428121         0.520486         3.302268
 H        -1.892131         1.526067         2.123151
 H        -1.739894        -0.089046         1.755199
 H         0.559515         3.011551         0.548502
 H         0.999824         2.952474         2.404128
 H         3.171453         1.935630         1.441399
 H        -0.206280        -2.026880         0.863085
 H        -0.485322        -0.982490        -0.607076
 H         0.971211        -1.872344        -0.299574
 H         2.447121        -0.138554         3.771373
