19
Iteration:   744charge 0 multiplicity 1
 C        -1.230972         0.725012         2.127163
 C         0.238843         0.976231         1.815258
 C         0.939570         2.280382         1.485773
 C         2.146237         1.500836         1.265725
 O         1.749831         0.741959        -0.040220
 C         0.995427        -0.083205         0.754963
 C         0.216929        -1.177457         0.167581
 C         1.584851         0.222835         2.036419
 O         2.209421        -0.576875         3.074129
 H        -1.697324         1.578500         2.712682
 H        -2.058909         0.607367         1.341143
 H        -1.221307        -0.128760         2.912093
 H         0.657729         2.917834         0.658498
 H         1.023867         2.932941         2.403964
 H         3.179942         1.772700         1.449099
 H        -0.509212        -1.606590         1.038444
 H        -0.442766        -0.901306        -0.676580
 H         0.858734        -1.959611        -0.062097
 H         2.734377         0.045840         3.554369
