19
Iteration:  2545charge 0 multiplicity 1
 C        -0.992043         0.822577         2.559940
 C         0.275686         0.958115         1.730377
 C         0.948465         2.275596         1.402743
 C         2.236132         1.557352         1.239189
 O         1.761000         0.870039        -0.103639
 C         0.976674        -0.055449         0.697918
 C         0.413671        -1.339701         0.088670
 C         1.537543         0.226974         2.004216
 O         1.765531        -0.673489         3.053627
 H        -1.751498         1.471807         2.027676
 H        -1.358419        -0.164356         2.475732
 H        -0.975813         1.050574         3.624238
 H         0.572091         2.855086         0.570046
 H         1.017895         2.886491         2.275417
 H         3.385723         1.934082         1.043761
 H         0.055015        -1.984583         0.796971
 H        -0.374632        -1.032324        -0.567536
 H         1.165156        -1.947064        -0.369789
 H         1.637821        -0.320154         3.951042
