19
Iteration:   803charge 0 multiplicity 1
 C        -1.149076         0.745354         2.440811
 C         0.246264         1.047104         1.849777
 C         0.932533         2.299013         1.479888
 C         2.224277         1.505231         1.114351
 O         1.786625         0.822501        -0.103200
 C         1.023051        -0.088363         0.742260
 C         0.346430        -1.308834         0.094093
 C         1.574100         0.279213         2.051035
 O         1.944518        -0.625809         3.046650
 H        -1.841000         1.578569         2.162925
 H        -1.552344        -0.260626         2.156535
 H        -1.141732         0.779176         3.566938
 H         0.516944         2.836017         0.585904
 H         1.069812         2.959655         2.315384
 H         3.282237         1.752356         1.146866
 H        -0.103732        -1.944835         0.759693
 H        -0.308568        -0.986264        -0.708529
 H         1.195235        -1.865853        -0.498989
 H         1.374540        -0.497147         3.858783
