19
Iteration:  3445
 C        -1.176363         0.715570         2.304697
 C         0.205722         0.902872         1.723380
 C         0.965271         2.360321         1.582183
 C         2.115358         1.457550         1.266091
 O         1.908304         0.689161        -0.051394
 C         0.966574        -0.047349         0.705052
 C         0.193027        -1.247656         0.043303
 C         1.472656         0.186521         2.049211
 O         2.201616        -0.335123         3.095862
 H        -1.502231         1.560969         2.956256
 H        -1.908472         0.436087         1.428843
 H        -1.226017        -0.135139         2.893211
 H         0.677795         3.078373         0.782450
 H         0.929962         2.802468         2.645882
 H         3.192944         1.757655         1.248517
 H        -0.822870        -1.466062         0.321026
 H        -0.010863        -1.034631        -0.972489
 H         0.680550        -2.214876         0.092368
 H         1.893917        -1.133417         3.517280
