19
Iteration:  1773
 C        -1.075522         0.774694         2.406611
 C         0.205131         0.992651         1.719719
 C         0.937223         2.393854         1.400233
 C         2.169891         1.487153         1.106283
 O         1.744991         0.779236        -0.056856
 C         1.006149        -0.090463         0.797992
 C         0.566189        -1.333652         0.205375
 C         1.555092         0.316761         2.052038
 O         1.783026        -0.678033         3.023120
 H        -0.765461         0.545842         3.380580
 H        -1.648281         1.688198         2.655569
 H        -1.791747        -0.075591         2.105704
 H         0.647791         2.985272         0.575384
 H         0.959728         3.136816         2.259038
 H         3.173874         1.910902         1.046019
 H         0.013924        -1.901485         0.895479
 H        -0.104007        -1.186006        -0.572820
 H         1.548168        -1.875067        -0.189460
 H         1.696776        -0.104254         3.828379
