19
Iteration:   249charge 0 multiplicity 1
 C        -1.052347         0.820139         2.457755
 C         0.144571         1.007695         1.653068
 C         0.931474         2.290564         1.399942
 C         2.199641         1.521861         1.072389
 O         1.865572         0.699981        -0.082759
 C         0.931962        -0.034866         0.766181
 C         0.473084        -1.331894         0.212167
 C         1.528189         0.270941         2.034296
 O         1.837441        -0.591295         3.105762
 H        -0.724837         0.855595         3.533504
 H        -1.987627         1.388911         2.177168
 H        -1.475460        -0.158259         2.470085
 H         0.477932         2.958264         0.556483
 H         1.120077         2.851647         2.334736
 H         3.099299         2.047363         1.054558
 H         0.242983        -2.078628         0.877469
 H        -0.449038        -1.161008        -0.435913
 H         1.354121        -1.693548        -0.344446
 H         1.769068        -0.045493         3.961309
