19
Iteration:   781
 C        -1.198291         0.759931         2.348700
 C         0.208691         0.975308         1.800579
 C         0.906938         2.288218         1.550371
 C         2.148208         1.465471         1.232466
 O         1.940553         0.671623        -0.093929
 C         0.907014        -0.007053         0.710504
 C         0.295292        -1.223947         0.106237
 C         1.517413         0.210033         2.025108
 O         2.085693        -0.509147         2.974734
 H        -1.637002         1.776510         2.420209
 H        -1.798064        -0.029345         1.861528
 H        -1.123917         0.444935         3.421837
 H         0.487039         3.067973         0.864351
 H         1.078421         2.740714         2.510986
 H         3.136907         1.898496         1.347674
 H        -0.080510        -1.642181         0.963916
 H        -0.466852        -1.127633        -0.651702
 H         1.078688        -2.036773        -0.238668
 H         2.045583        -0.070340         3.818916
