19
Iteration:  2296
 C        -1.157156         0.677151         2.307900
 C         0.191428         0.994256         1.722977
 C         0.946168         2.272618         1.510220
 C         2.220090         1.426949         1.170961
 O         1.934321         0.688743        -0.000444
 C         0.843557         0.021232         0.646910
 C         0.196868        -1.211099         0.152840
 C         1.527683         0.314724         2.123324
 O         2.117357        -0.525910         3.030191
 H        -1.203290         1.046181         3.360337
 H        -1.995997         1.011700         1.674746
 H        -1.303733        -0.409044         2.340705
 H         0.538547         2.917650         0.708530
 H         1.140709         2.826790         2.445010
 H         3.149493         1.948774         1.200077
 H        -0.317476        -1.682128         0.999950
 H        -0.713269        -1.084489        -0.605824
 H         0.948562        -1.975902        -0.275868
 H         2.271174         0.085068         3.761534
