19
Iteration:  2807charge 0 multiplicity 1
 C        -1.162548         0.790123         2.349716
 C         0.283180         0.882471         1.760713
 C         0.893457         2.211335         1.483397
 C         2.150755         1.473526         1.087726
 O         1.912315         0.752314        -0.174020
 C         0.982504        -0.135159         0.822114
 C         0.240439        -1.139980         0.095308
 C         1.598721         0.245311         2.039072
 O         1.943425        -0.495042         3.248903
 H        -1.404907         1.665000         3.041810
 H        -1.910557         0.668533         1.624176
 H        -1.214716        -0.064176         3.000275
 H         0.480776         2.945413         0.751727
 H         1.173860         2.747870         2.384727
 H         2.992063         2.117073         1.163044
 H        -0.420007        -1.596107         0.770771
 H        -0.447321        -0.670924        -0.630647
 H         0.900474        -1.841300        -0.410068
 H         2.879086        -0.781560         3.162182
