19
Iteration:  2871charge 0 multiplicity 1
 C        -1.300992         0.685202         2.282591
 C         0.152628         0.979864         1.704710
 C         1.074947         2.354792         1.535948
 C         2.186930         1.380645         1.151713
 O         1.860104         0.659303        -0.019022
 C         0.954054        -0.049524         0.765570
 C         0.265435        -1.237462         0.134833
 C         1.554714         0.305784         2.080279
 O         2.100101        -0.389677         3.088363
 H        -1.191387         0.785175         3.413722
 H        -1.958180         1.470591         1.960244
 H        -1.852065        -0.247786         1.987170
 H         0.741984         3.193645         0.762395
 H         1.018483         2.884599         2.480502
 H         3.041115         1.856405         1.181562
 H        -0.195677        -1.751878         0.979116
 H        -0.513441        -0.925442        -0.735932
 H         1.025868        -2.042802        -0.200561
 H         2.431058        -1.321160         2.908063
