19
Iteration:  3526
 C        -1.115279         0.632330         2.401824
 C         0.183867         0.954670         1.621975
 C         0.949848         2.262433         1.445681
 C         2.245731         1.550793         1.209204
 O         1.906234         0.720165        -0.070963
 C         0.914281        -0.011257         0.765430
 C         0.289147        -1.233978         0.134263
 C         1.563507         0.307543         2.096058
 O         1.906036        -0.548729         3.068850
 H        -1.113562         1.208923         3.324955
 H        -2.081716         0.957128         1.822874
 H        -0.991647        -0.515410         2.617266
 H         0.539942         2.886346         0.638098
 H         0.871069         2.833274         2.336266
 H         3.224753         2.050345         1.101658
 H         0.115586        -1.932264         1.054011
 H        -0.574794        -0.865195        -0.499307
 H         1.024493        -1.580636        -0.644173
 H         2.173275        -0.097743         3.894908
