19
Iteration:  4134charge 0 multiplicity 1
 C        -1.045653         0.682812         2.485410
 C         0.247329         0.987554         1.703870
 C         0.951675         2.342531         1.487857
 C         2.176604         1.477425         1.228838
 O         1.851589         0.675312        -0.089122
 C         0.934262        -0.073716         0.641662
 C         0.331410        -1.233280         0.115552
 C         1.559521         0.252159         2.016151
 O         1.912222        -0.462192         3.043242
 H        -0.910111         1.006185         3.603534
 H        -2.040333         1.175984         2.358411
 H        -1.210237        -0.386303         2.583230
 H         0.621619         2.942035         0.641231
 H         0.847448         2.934313         2.307688
 H         3.195573         1.849810         1.137472
 H        -0.224971        -1.693351         0.951584
 H        -0.274972        -1.120148        -0.786295
 H         1.256256        -1.836543        -0.245629
 H         1.218192        -0.266534         3.731609
