19
Iteration:  1291
 C        -1.183498         0.627276         2.285800
 C         0.283699         0.892380         1.799204
 C         0.907190         2.243602         1.543688
 C         2.322247         1.566009         1.153228
 O         1.787222         0.743088        -0.051959
 C         0.949955        -0.058625         0.762893
 C         0.173686        -1.025510        -0.005366
 C         1.627695         0.261962         2.101113
 O         2.050326        -0.609457         3.123061
 H        -1.183100         0.148321         3.232147
 H        -1.661340         1.642079         2.313803
 H        -1.801380        -0.033939         1.590391
 H         0.464200         2.496608         0.600202
 H         0.982174         2.932056         2.464033
 H         3.394789         1.773756         1.245537
 H        -0.637247        -1.464030         0.722272
 H        -0.231829        -0.434344        -0.789827
 H         0.767077        -1.929572        -0.481646
 H         2.098508        -0.117019         3.991150
