19
Iteration:  4269charge 0 multiplicity 1
 C        -1.242477         0.761495         2.170835
 C         0.262440         0.973419         1.795069
 C         0.938799         2.290101         1.591474
 C         2.166070         1.530172         1.169009
 O         1.787327         0.810682        -0.101595
 C         0.884503        -0.078042         0.822384
 C         0.287518        -1.324669         0.290168
 C         1.652133         0.259696         1.990329
 O         2.084628        -0.606414         3.009980
 H        -1.603659         1.439940         3.056347
 H        -1.683811         1.273444         1.303385
 H        -1.675344        -0.294362         2.236883
 H         0.597788         2.967048         0.817808
 H         1.204599         2.935590         2.446563
 H         3.248183         1.836587         1.222871
 H         0.038289        -2.141316         1.029768
 H        -0.523203        -1.128011        -0.467236
 H         1.269763        -1.689136        -0.272731
 H         2.345887        -0.176058         3.848625
