19
Iteration:  3030charge 0 multiplicity 1
 C        -1.226202         0.682605         2.195306
 C         0.215470         0.966293         1.905598
 C         0.933790         2.247614         1.435717
 C         2.231248         1.384299         1.197795
 O         1.860525         0.673342        -0.059429
 C         0.981890        -0.112377         0.749233
 C         0.141325        -1.112596         0.100925
 C         1.551436         0.281334         2.109697
 O         2.105786        -0.411010         3.153507
 H        -1.631985         1.504781         2.694275
 H        -1.933310         0.464583         1.322374
 H        -1.277747        -0.173437         2.847919
 H         0.728562         3.095097         0.676753
 H         1.229665         2.872189         2.398039
 H         3.321070         1.938432         1.273432
 H        -0.634776        -1.532673         0.755045
 H        -0.424049        -0.713251        -0.728955
 H         0.684376        -1.978396        -0.316756
 H         3.089204        -0.481555         2.961213
