19
Iteration:  2997
 C        -1.072518         0.715520         2.261372
 C         0.256059         0.953758         1.766501
 C         0.889106         2.277045         1.458019
 C         2.197993         1.474460         1.195930
 O         1.781342         0.691908        -0.069537
 C         0.988151        -0.064685         0.765140
 C         0.206223        -1.166693         0.082207
 C         1.626481         0.206677         2.056137
 O         2.009988        -0.411578         3.218399
 H        -1.354080         1.538245         2.846789
 H        -1.843244         0.487109         1.476190
 H        -0.969811        -0.034258         3.022371
 H         0.561188         2.907392         0.611024
 H         1.002467         2.768028         2.461930
 H         3.262080         1.974089         0.957812
 H        -0.569208        -1.513422         0.795899
 H        -0.255156        -0.739441        -0.771494
 H         0.840522        -1.994316        -0.222678
 H         2.125366        -1.385297         3.134311
