19
Iteration:  2862
 C        -1.316555         0.666625         2.243137
 C         0.117748         1.027027         1.767163
 C         1.019193         2.351463         1.519083
 C         2.266132         1.371202         1.186189
 O         1.877612         0.652437        -0.068610
 C         0.892983        -0.054149         0.710871
 C         0.256795        -1.200517         0.141766
 C         1.501504         0.288755         2.094283
 O         2.178199        -0.370886         3.152550
 H        -1.295149         0.676332         3.382596
 H        -2.083783         1.340141         1.959666
 H        -1.522413        -0.344690         1.974814
 H         0.690288         2.980552         0.661311
 H         1.286788         2.885199         2.444199
 H         3.264832         1.590309         1.288372
 H        -0.343022        -1.658736         0.925243
 H        -0.495589        -0.932720        -0.658667
 H         0.950207        -1.950343        -0.264425
 H         2.364403        -1.244637         2.709842
