19
Iteration:  2853charge 0 multiplicity 1
 C        -1.223390         0.683484         2.241160
 C         0.224111         1.042390         1.797593
 C         0.951536         2.268034         1.462355
 C         2.188907         1.369779         1.249560
 O         1.894781         0.670820        -0.071571
 C         0.881081         0.042793         0.758163
 C         0.177098        -1.233236         0.138600
 C         1.478709         0.282377         2.025244
 O         2.192192        -0.371307         3.178638
 H        -1.487460         0.629137         3.316743
 H        -2.028194         1.209079         1.705443
 H        -1.359297        -0.307744         1.887671
 H         0.694640         2.944556         0.697883
 H         1.241017         2.878938         2.348264
 H         3.390545         1.453241         1.277136
 H        -0.467658        -1.810676         0.804776
 H        -0.375888        -0.897525        -0.682611
 H         0.940542        -1.824463        -0.288797
 H         2.485655        -1.280382         2.867974
