19
Iteration:  3942charge 0 multiplicity 1
 C        -1.036286         0.670378         2.533969
 C         0.202057         1.032886         1.788172
 C         0.914004         2.290328         1.482360
 C         2.169898         1.361622         1.170482
 O         1.858853         0.728068        -0.157517
 C         0.949965        -0.015141         0.626216
 C         0.363001        -1.268147         0.026094
 C         1.486905         0.329794         2.022422
 O         1.898778        -0.491321         3.141981
 H        -0.774689         1.195201         3.441088
 H        -2.051451         0.890731         1.996949
 H        -0.645589        -0.431927         2.694938
 H         0.687172         3.128674         0.824230
 H         1.045042         2.798398         2.506133
 H         3.144996         1.842880         1.246555
 H        -0.357937        -1.719104         0.707117
 H        -0.097898        -1.025829        -1.048002
 H         1.280467        -1.942902        -0.182970
 H         1.604831        -0.103395         3.968154
