19
Iteration:  2885charge 0 multiplicity 1
 C        -1.156500         0.804943         2.300248
 C         0.207579         0.934417         1.700610
 C         0.911679         2.290868         1.510086
 C         2.206042         1.522307         1.189566
 O         1.850209         0.715551        -0.039155
 C         0.895303        -0.101193         0.738775
 C         0.309801        -1.308401         0.194638
 C         1.601560         0.270075         2.032170
 O         1.995420        -0.442167         3.119254
 H        -1.189792         0.776752         3.415240
 H        -1.724608         1.680321         1.999545
 H        -1.630017        -0.083513         1.952197
 H         0.654771         3.064682         0.778815
 H         1.186338         2.641924         2.530650
 H         3.251611         1.824261         1.140926
 H        -0.340175        -1.926482         0.831599
 H        -0.361402        -0.967008        -0.610170
 H         1.073279        -1.896299        -0.296487
 H         2.400857        -1.198043         2.698675
