19
Iteration:   374charge 0 multiplicity 1
 C        -1.201726         0.683977         2.303968
 C         0.172304         0.908963         1.632286
 C         0.905139         2.209195         1.425729
 C         2.212785         1.393070         1.249108
 O         1.886982         0.723916         0.011076
 C         0.852457        -0.045822         0.734157
 C         0.212937        -1.195625         0.098920
 C         1.584418         0.259259         2.052132
 O         2.232210        -0.363007         3.118255
 H        -1.609640         1.552901         2.721782
 H        -2.000392         0.391942         1.636709
 H        -1.129085        -0.067203         3.146994
 H         0.675161         3.016154         0.762314
 H         0.891929         2.667314         2.450732
 H         3.241412         1.974625         1.465552
 H        -0.696147        -1.665385         0.613026
 H        -0.066427        -0.896895        -0.829013
 H         0.947240        -1.904901        -0.128507
 H         1.550345        -0.158075         3.843194
