19
Iteration:  3339
 C        -1.070960         0.793272         2.365289
 C         0.158400         1.043523         1.700674
 C         0.929848         2.339818         1.555370
 C         2.219833         1.476481         1.175509
 O         1.888106         0.775383        -0.110570
 C         0.870145        -0.020214         0.667814
 C         0.402685        -1.405294         0.180726
 C         1.477725         0.232245         2.019568
 O         1.888817        -0.568689         3.107128
 H        -0.941044         1.022957         3.418373
 H        -1.873234         1.496296         2.022667
 H        -1.446204        -0.312222         2.376157
 H         0.731855         3.104471         0.729331
 H         0.894162         2.830739         2.583926
 H         3.251554         1.829303         1.314436
 H         0.178759        -2.137390         1.073912
 H        -0.522751        -1.370495        -0.402917
 H         1.229202        -1.877280        -0.488766
 H         2.763620        -0.169045         3.153565
