19
Iteration:  4925
 C        -1.112042         0.773616         2.508688
 C         0.216009         0.958003         1.724746
 C         0.859393         2.279916         1.512647
 C         2.209629         1.562528         1.074455
 O         1.804019         0.736251        -0.139735
 C         0.982448         0.030454         0.737585
 C         0.479850        -1.269922         0.164964
 C         1.580112         0.243560         2.020119
 O         1.822504        -0.596629         3.118083
 H        -0.961549         1.163072         3.581210
 H        -2.028086         1.144644         1.909924
 H        -1.409361        -0.302224         2.651217
 H         0.371176         3.135886         0.738835
 H         1.026969         2.630776         2.547374
 H         3.035248         2.291059         0.891989
 H         0.170932        -1.197121        -0.931723
 H         1.379689        -2.110436         0.061069
 H        -0.366116        -1.668282         0.644825
 H         2.720821        -1.015352         3.042538
