19
Iteration:   631
 C        -0.986549         0.750593         2.483296
 C         0.193806         1.040824         1.698167
 C         0.966769         2.302287         1.372361
 C         2.205139         1.466432         1.004761
 O         1.721034         0.736894        -0.058225
 C         0.953400        -0.107166         0.800644
 C         0.529893        -1.322663         0.089876
 C         1.536036         0.364138         2.113498
 O         1.765984        -0.611038         3.141903
 H        -0.738108         0.417036         3.524595
 H        -1.469529         1.717639         2.665249
 H        -1.571467        -0.039162         2.095742
 H         0.679105         3.040613         0.588797
 H         1.302931         2.814456         2.309663
 H         2.953980         2.324017         0.769046
 H         0.047312        -1.980246         0.739182
 H        -0.233163        -0.959961        -0.661489
 H         1.364354        -1.834060        -0.444935
 H         1.636942        -0.212283         4.031544
