19
Iteration:  1230charge 0 multiplicity 1
 C        -1.086140         0.750473         2.489242
 C         0.171205         0.978619         1.718436
 C         1.036376         2.261658         1.601852
 C         2.191762         1.468706         1.227327
 O         1.866541         0.835047        -0.102394
 C         0.882748         0.021443         0.662319
 C         0.431319        -1.255709         0.051509
 C         1.487125         0.191900         1.977426
 O         1.893900        -0.598490         3.019960
 H        -0.821320         0.718861         3.589141
 H        -1.926774         1.445111         2.369981
 H        -1.570853        -0.183397         2.210226
 H         0.656031         3.115524         0.955147
 H         1.361671         2.870469         2.409022
 H         3.268891         1.660594         1.242196
 H         0.230659        -1.985838         0.777063
 H        -0.613167        -1.169759        -0.379796
 H         1.241038        -1.640111        -0.603532
 H         1.191402        -0.378845         3.712451
