19
Iteration:  2839charge 0 multiplicity 1
 C        -1.093795         0.683568         2.173847
 C         0.265001         0.952774         1.825837
 C         0.940927         2.318171         1.462229
 C         2.188468         1.398865         1.218481
 O         1.854363         0.705409        -0.011888
 C         0.821438        -0.069206         0.751126
 C         0.142599        -1.173257         0.107808
 C         1.594647         0.215760         2.094612
 O         2.120935        -0.361185         3.165659
 H        -1.346711         1.036420         3.227070
 H        -1.675421         1.314956         1.553402
 H        -1.328235        -0.381010         2.120372
 H         0.534765         2.723106         0.473501
 H         0.970233         2.993615         2.313234
 H         3.038692         1.849288         1.323456
 H        -0.480431        -1.732159         0.799597
 H        -0.537620        -0.915786        -0.795961
 H         0.935416        -1.872916        -0.268867
 H         2.536274        -1.194560         2.908929
