19
Iteration:  4394
 C        -1.151236         0.606588         2.462605
 C         0.148298         0.998662         1.669553
 C         1.013337         2.334535         1.500693
 C         2.234207         1.426285         1.215018
 O         1.828376         0.704560        -0.117857
 C         0.921520        -0.091001         0.674196
 C         0.299298        -1.196817         0.020614
 C         1.495935         0.279797         2.020893
 O         2.052824        -0.439174         3.199146
 H        -1.270070         1.047975         3.484590
 H        -2.173144         0.596940         1.873674
 H        -0.899210        -0.506656         2.561748
 H         0.632250         2.957907         0.642402
 H         1.138321         2.963650         2.446757
 H         3.270312         1.702193         1.375185
 H        -0.628798        -1.506983         0.498046
 H         0.095320        -0.818394        -1.084527
 H         1.006394        -1.995027         0.028519
 H         1.752932         0.256921         3.817373
