19
Iteration:   770charge 0 multiplicity 1
 C        -1.203888         0.758606         2.300431
 C         0.156195         0.940611         1.674449
 C         0.887681         2.239637         1.604710
 C         2.245526         1.455307         1.244003
 O         1.944326         0.723984        -0.064308
 C         0.874309        -0.012603         0.701663
 C         0.177503        -1.288660         0.162071
 C         1.548257         0.352471         2.043788
 O         2.160150        -0.526737         3.004501
 H        -1.782218         1.693465         2.456649
 H        -1.957024         0.220029         1.703989
 H        -1.035867         0.276529         3.285965
 H         0.517315         2.961018         0.824152
 H         0.917661         2.669576         2.582862
 H         3.269453         1.679289         1.469554
 H        -0.388699        -1.870821         0.780478
 H        -0.442787        -1.056149        -0.695613
 H         1.123785        -1.851727        -0.258940
 H         2.444713         0.018402         3.737881
