19
Iteration:  4423charge 0 multiplicity 1
 C        -1.104115         0.656596         2.212611
 C         0.276361         0.898631         1.791483
 C         0.988610         2.267853         1.632373
 C         2.139958         1.482631         1.184783
 O         1.832218         0.732755        -0.044262
 C         0.824081        -0.090467         0.709788
 C         0.202465        -1.240731         0.114521
 C         1.588763         0.245888         1.960679
 O         2.127502        -0.345775         3.112411
 H        -1.440418         1.325204         3.020046
 H        -1.732786         0.645967         1.385684
 H        -1.204724        -0.343592         2.698371
 H         0.515338         2.902259         0.953392
 H         1.263123         2.686566         2.614564
 H         3.122776         1.896639         1.301825
 H        -0.892010        -1.367858         0.288140
 H         0.349673        -1.151674        -1.012141
 H         0.780176        -2.131547         0.360702
 H         1.455820        -0.053311         3.733363
