19
Iteration:  2276charge 0 multiplicity 1
 C        -1.160408         0.728590         2.219777
 C         0.208828         0.923911         1.740035
 C         0.886138         2.335022         1.507547
 C         2.169564         1.484636         1.269177
 O         1.865558         0.740196        -0.093901
 C         0.938385        -0.121272         0.797226
 C         0.117073        -1.179875         0.163119
 C         1.637833         0.226118         2.069498
 O         2.187033        -0.532657         3.055500
 H        -1.399194         1.439540         2.951598
 H        -1.837271         0.821419         1.302044
 H        -1.356703        -0.253728         2.686868
 H         0.574075         2.940959         0.692868
 H         0.863110         2.837057         2.461719
 H         3.173615         1.714703         1.237853
 H        -0.641627        -1.631688         0.795267
 H        -0.311536        -0.746025        -0.685786
 H         0.742166        -2.020775        -0.169795
 H         2.350707         0.049619         3.854340
