19
Iteration:   614
 C        -1.080105         0.737780         2.507178
 C         0.316411         0.989119         1.771048
 C         0.905118         2.359184         1.346601
 C         2.244749         1.575015         1.043578
 O         1.793140         0.681602        -0.056499
 C         0.891211        -0.023785         0.769774
 C         0.416568        -1.264979         0.112824
 C         1.621386         0.227032         2.065206
 O         1.804303        -0.576962         3.127616
 H        -1.003907         0.242363         3.486713
 H        -1.608184         1.733742         2.549978
 H        -1.605163        -0.132252         1.950766
 H         0.413638         2.702456         0.431019
 H         0.890152         3.100652         2.189190
 H         3.298180         1.726939         0.918915
 H        -0.058873        -2.145355         0.768720
 H        -0.111612        -1.129313        -0.840737
 H         1.361618        -1.660182        -0.251257
 H         1.634598        -0.064494         3.974683
