19
Iteration:  2730charge 0 multiplicity 1
 C        -1.017834         0.750418         2.487625
 C         0.309566         0.984981         1.813567
 C         0.950485         2.303721         1.556246
 C         2.190784         1.510830         1.098910
 O         1.898269         0.778935        -0.086662
 C         0.859702        -0.025910         0.672121
 C         0.301508        -1.330771         0.112042
 C         1.588571         0.229402         1.958989
 O         1.838928        -0.503885         3.105869
 H        -1.767617         1.368642         1.896747
 H        -1.288242        -0.249593         2.414541
 H        -1.134212         0.998033         3.531315
 H         0.489037         2.856096         0.720114
 H         1.199674         2.919360         2.384149
 H         3.136915         2.053875         1.147867
 H        -0.224063        -2.003467         0.681249
 H        -0.220155        -0.994600        -0.801036
 H         1.178952        -1.903756        -0.141366
 H         1.201343        -1.269491         3.175901
