19
Iteration:  2833charge 0 multiplicity 1
 C        -1.119459         0.688936         2.185107
 C         0.316897         0.893205         1.791581
 C         0.905837         2.309738         1.475099
 C         2.208952         1.446191         1.197713
 O         1.815783         0.709769         0.007869
 C         0.873540        -0.093167         0.796853
 C         0.156143        -1.171086         0.060382
 C         1.592362         0.243650         2.055062
 O         2.091542        -0.389654         3.208335
 H        -1.228985         1.185103         3.139316
 H        -1.798008         1.302273         1.493349
 H        -1.470309        -0.352095         2.333525
 H         0.553169         2.679212         0.547932
 H         1.048676         3.082501         2.264112
 H         3.391644         1.933450         1.086358
 H        -0.498042        -1.550016         0.887033
 H        -0.528381        -0.900686        -0.689286
 H         0.800325        -1.929581        -0.353521
 H         2.562292        -1.136803         2.814514
