19
Iteration:  2239charge 0 multiplicity 1
 C        -1.221543         0.759575         2.248693
 C         0.309109         0.921413         1.856816
 C         0.886014         2.323915         1.568609
 C         2.168478         1.409752         1.141224
 O         1.813107         0.710243        -0.135209
 C         0.873174         0.007802         0.834594
 C         0.201865        -1.215355         0.106354
 C         1.630823         0.285686         2.081445
 O         2.227812        -0.599970         3.089870
 H        -1.801331         1.780717         2.274489
 H        -1.673886         0.370682         1.358809
 H        -1.506175         0.079220         3.055070
 H         0.451568         2.929748         0.693818
 H         0.932785         3.008539         2.459432
 H         3.193873         1.923815         1.231073
 H        -0.733504        -1.670928         0.510306
 H        -0.060642        -0.758904        -1.042831
 H         1.039718        -1.958926        -0.069453
 H         1.898370        -0.148836         3.916101
