19
Iteration:  3205
 C        -1.125040         0.772621         2.244328
 C         0.277854         0.901141         1.786677
 C         0.921468         2.269514         1.498026
 C         2.232880         1.392374         1.127641
 O         1.714107         0.712896        -0.011967
 C         0.951285        -0.091999         0.785069
 C         0.277959        -1.153046         0.109635
 C         1.551885         0.250940         2.106931
 O         2.020036        -0.425610         3.141569
 H        -1.472158         1.409613         3.056167
 H        -1.688585         0.871830         1.239403
 H        -1.298323        -0.152337         2.711304
 H         0.569979         2.919800         0.681558
 H         1.211888         2.743008         2.404723
 H         3.323977         1.759745         1.059908
 H        -0.683404        -1.431961         0.565689
 H         0.050192        -0.667223        -0.892235
 H         0.824762        -2.169243        -0.078807
 H         2.907729        -0.735681         3.000271
