19
Iteration:   415
 C        -1.083042         0.601392         2.427552
 C         0.304083         0.990149         1.835246
 C         0.936184         2.304390         1.441123
 C         2.214710         1.455416         1.078892
 O         1.819129         0.750976        -0.083666
 C         0.974849        -0.104678         0.758375
 C         0.357044        -1.253358         0.046226
 C         1.600992         0.328731         2.029241
 O         1.769448        -0.463592         3.135433
 H        -1.408339         1.589457         2.774838
 H        -1.921728         0.102726         1.850518
 H        -0.901262        -0.017773         3.331839
 H         0.528800         2.965374         0.631572
 H         1.306283         2.899342         2.351869
 H         3.107866         2.069799         0.866850
 H        -0.257320        -1.892907         0.797804
 H        -0.267735        -0.871712        -0.839117
 H         1.165574        -1.923351        -0.237204
 H         2.124380        -0.142548         3.950863
