19
Iteration:  3821charge 0 multiplicity 1
 C        -1.345495         0.815437         2.225919
 C         0.235297         0.929574         1.736456
 C         0.869695         2.286925         1.526888
 C         2.188057         1.486412         1.261964
 O         1.827997         0.792605        -0.104528
 C         0.925220         0.003735         0.790554
 C         0.302665        -1.308960         0.319131
 C         1.670069         0.248102         1.972211
 O         2.135719        -0.647931         2.992363
 H        -1.376359         0.846111         3.262736
 H        -1.774700         1.718474         1.674354
 H        -1.756818        -0.086260         1.694075
 H         0.775188         2.978695         0.787096
 H         0.893109         2.840017         2.452684
 H         3.126498         2.008785         1.297088
 H         0.107348        -1.993335         1.144010
 H        -0.613611        -1.205267        -0.280568
 H         1.185835        -1.635360        -0.289795
 H         2.428482        -0.086659         3.760833
