19
Iteration:  3795
 C        -1.171152         0.819526         2.205107
 C         0.284979         1.006601         1.806756
 C         0.895165         2.279487         1.583273
 C         2.153685         1.510455         1.097130
 O         1.709665         0.781767        -0.045395
 C         0.981085        -0.039806         0.713703
 C         0.390698        -1.359385         0.218372
 C         1.530661         0.328649         2.093443
 O         2.073704        -0.662045         3.002022
 H        -1.193281         1.223159         3.290962
 H        -1.689963         1.408972         1.467841
 H        -1.385176        -0.190634         2.037814
 H         0.585258         3.087615         0.924792
 H         1.228575         2.758893         2.533685
 H         3.141147         2.029821         1.053886
 H         0.183141        -1.920433         1.215242
 H        -0.522352        -1.248207        -0.367669
 H         1.210937        -1.901501        -0.271719
 H         1.682483        -0.470991         3.900132
