19
Iteration:  1794charge 0 multiplicity 1
 C        -1.152671         0.811234         2.477174
 C         0.211780         1.000958         1.782099
 C         0.906286         2.274433         1.390798
 C         2.220184         1.532154         1.133700
 O         1.870067         0.746173        -0.073009
 C         0.847606         0.044679         0.699798
 C         0.527417        -1.400443         0.168559
 C         1.559093         0.282961         2.064758
 O         1.865951        -0.611405         3.012065
 H        -1.293360         0.593881         3.480952
 H        -1.781406         1.726016         2.444825
 H        -1.666077        -0.046572         1.918199
 H         0.488582         2.894829         0.663903
 H         1.098224         2.945945         2.249273
 H         3.186274         1.992730         1.273819
 H         0.053237        -1.994634         0.870410
 H        -0.175358        -1.460823        -0.559410
 H         1.538285        -1.801299        -0.235725
 H         1.893664        -0.317560         3.968329
