19
Iteration:  4201
 C        -1.062451         0.686235         2.358127
 C         0.183985         0.983780         1.793675
 C         0.901238         2.267659         1.472787
 C         2.147500         1.428065         1.209067
 O         1.899601         0.678486        -0.091385
 C         0.937686        -0.030044         0.726529
 C         0.214927        -1.155242         0.066365
 C         1.474837         0.297325         2.096392
 O         2.109733        -0.492301         3.060237
 H        -1.355698         1.425511         3.187197
 H        -1.960725         0.621957         1.715115
 H        -0.905833        -0.262456         2.831946
 H         0.599533         2.900465         0.645297
 H         0.982735         2.892058         2.310653
 H         3.147575         1.822682         1.360065
 H        -0.633979        -1.684665         0.502850
 H        -0.053615        -1.104986        -0.975264
 H         1.010226        -2.020738         0.035760
 H         2.010085        -0.060797         3.915821
