19
Iteration:  1027charge 0 multiplicity 1
 C        -1.039410         0.689787         2.525616
 C         0.250430         1.036166         1.802470
 C         0.933810         2.287495         1.456752
 C         2.205876         1.545967         1.215408
 O         1.845827         0.841888        -0.063910
 C         1.040463        -0.026833         0.654491
 C         0.323135        -1.195249         0.043878
 C         1.551212         0.236723         2.033399
 O         1.790189        -0.720532         2.971159
 H        -0.851932         0.670957         3.632736
 H        -1.984327         1.314879         2.451241
 H        -1.264275        -0.348963         2.235193
 H         0.734604         2.935846         0.582069
 H         1.217139         2.813216         2.435232
 H         3.202303         2.054183         1.214020
 H         0.117430        -1.858166         1.014652
 H        -0.561823        -0.979257        -0.475907
 H         0.957560        -1.786720        -0.584539
 H         1.625148        -0.405135         3.894480
