19
Iteration:  2248
 C        -1.228848         0.758994         2.190401
 C         0.245372         0.915720         1.938892
 C         0.903171         2.215822         1.487129
 C         2.179222         1.473849         1.173347
 O         1.771387         0.734015        -0.114239
 C         0.918033        -0.060011         0.790540
 C         0.213748        -1.134269         0.082621
 C         1.678064         0.281228         2.143887
 O         2.210479        -0.563511         3.077256
 H        -1.589463         1.795098         2.507895
 H        -1.694362         0.379470         1.296984
 H        -1.553462         0.052061         2.971724
 H         0.417950         2.870818         0.694785
 H         1.091481         2.823177         2.416131
 H         3.269015         1.753324         1.049910
 H        -0.720806        -1.469931         0.661852
 H        -0.246384        -0.907871        -1.012006
 H         0.889502        -1.997617         0.027898
 H         2.089684        -0.205485         4.007442
