19
Iteration:   221
 C        -1.020649         0.797999         2.448554
 C         0.259740         1.000989         1.807025
 C         0.914720         2.308400         1.306566
 C         2.195759         1.430475         1.144448
 O         1.786947         0.763965        -0.050711
 C         0.905872        -0.064558         0.763763
 C         0.410626        -1.338374         0.061065
 C         1.590299         0.293986         2.043196
 O         1.905742        -0.500650         3.164680
 H        -1.047468         1.194019         3.434659
 H        -1.875974         1.068968         1.859756
 H        -1.278185        -0.317497         2.595435
 H         0.546255         2.616044         0.384782
 H         1.014288         3.077723         2.085318
 H         3.254112         1.952043         1.288615
 H        -0.130061        -2.132555         0.786374
 H        -0.342083        -1.105525        -0.680370
 H         1.271035        -1.855525        -0.348140
 H         0.989351        -0.610760         3.586949
