19
Iteration:  2013
 C        -1.149404         0.721571         2.381741
 C         0.204464         1.015032         1.731871
 C         0.907626         2.328418         1.616456
 C         2.189497         1.494463         1.171801
 O         1.879520         0.754734        -0.032855
 C         0.923150        -0.054195         0.653177
 C         0.314472        -1.254858         0.105294
 C         1.516195         0.307252         1.985952
 O         2.018685        -0.662814         2.978496
 H        -1.922302         0.822292         1.745664
 H        -1.083128        -0.228494         2.937826
 H        -1.303352         1.461651         3.177947
 H         0.610936         3.053251         0.837466
 H         1.080311         2.977366         2.509056
 H         3.199289         1.974009         1.544083
 H        -0.321511        -1.492052         1.005721
 H        -0.279769        -1.307564        -0.746411
 H         1.211018        -2.016309        -0.004174
 H         2.122553        -0.170983         3.804076
