19
Iteration:  4264charge 0 multiplicity 1
 C        -1.212285         0.789308         2.143242
 C         0.291401         0.916941         1.847287
 C         0.869103         2.312998         1.545588
 C         2.201215         1.524731         1.139658
 O         1.798208         0.787407        -0.020938
 C         0.846687        -0.042718         0.797647
 C         0.269939        -1.307168         0.258078
 C         1.654504         0.243004         2.012287
 O         2.102099        -0.608296         2.991486
 H        -1.466286         1.329886         2.998262
 H        -1.696726         1.176229         1.227392
 H        -1.564745        -0.191503         2.290964
 H         0.550623         3.015974         0.735114
 H         0.999691         2.764201         2.547930
 H         3.220454         1.858326         1.136766
 H         0.013367        -1.962311         1.074027
 H        -0.514064        -1.081989        -0.430301
 H         1.230272        -1.676658        -0.110490
 H         2.334543        -0.106104         3.784462
