19
Iteration:  4055
 C        -1.248503         0.784107         2.137590
 C         0.193526         1.042016         1.759593
 C         0.972878         2.333008         1.577816
 C         2.181680         1.557798         1.176869
 O         1.775128         0.758838        -0.059685
 C         0.844173         0.017777         0.749946
 C         0.267988        -1.328908         0.222771
 C         1.621392         0.249870         2.088226
 O         2.249115        -0.704846         3.072245
 H        -1.766825         1.202921         3.039639
 H        -1.968325         1.098305         1.316404
 H        -1.613941        -0.305544         2.116904
 H         0.613047         3.041003         0.844937
 H         1.163977         2.815993         2.483584
 H         3.206861         1.965942         0.984751
 H        -0.139826        -2.014796         1.041568
 H        -0.698256        -1.244741        -0.415027
 H         0.992003        -1.973779        -0.263992
 H         2.392956        -0.077707         3.807616
