19
Iteration:  1426
 C        -1.097142         0.747239         2.398800
 C         0.211535         0.995641         1.770472
 C         0.949900         2.365324         1.534541
 C         2.139208         1.460491         1.225727
 O         1.947304         0.772297        -0.087660
 C         0.868783        -0.002342         0.679581
 C         0.418069        -1.321921         0.185275
 C         1.476835         0.272115         1.967592
 O         1.915321        -0.617611         2.984448
 H        -1.972993         0.301632         1.809418
 H        -0.801339         0.028489         3.179357
 H        -1.690299         1.569951         2.793587
 H         0.750999         3.183417         0.713996
 H         0.883118         2.963328         2.470927
 H         3.180064         1.612231         1.283607
 H         0.268241        -1.971132         1.016365
 H        -0.535418        -1.100196        -0.452774
 H         1.253365        -1.750745        -0.538504
 H         1.813931        -0.269945         3.932087
