19
Iteration:  1360charge 0 multiplicity 1
 C        -1.167070         0.812419         2.352789
 C         0.218460         0.950612         1.785531
 C         0.957442         2.330414         1.565830
 C         2.193332         1.497871         1.212565
 O         1.850271         0.817167        -0.010608
 C         0.943293         0.013370         0.713049
 C         0.386156        -1.306882         0.133514
 C         1.529796         0.261903         2.021155
 O         1.983572        -0.674960         2.918234
 H        -1.522298        -0.256683         2.522387
 H        -1.108524         1.393709         3.289396
 H        -1.911704         1.185881         1.608776
 H         0.436434         2.896927         0.703426
 H         0.959998         2.766334         2.606288
 H         3.240099         1.700789         1.289171
 H        -0.196273        -1.764750         0.882098
 H        -0.188891        -1.142338        -0.829505
 H         1.072556        -2.244285        -0.039206
 H         1.702435        -0.284767         3.735750
