19
Iteration:    89
 C        -1.158183         0.786090         2.431098
 C         0.146527         1.010865         1.657185
 C         0.935021         2.281878         1.395526
 C         2.147637         1.476013         1.303946
 O         1.921247         0.709500        -0.094109
 C         0.959854         0.023939         0.647774
 C         0.396183        -1.336450         0.268410
 C         1.475680         0.231106         2.017531
 O         1.988869        -0.531939         3.005197
 H        -1.063461         1.149157         3.416941
 H        -2.024755         1.137842         1.959995
 H        -1.262427        -0.285222         2.579929
 H         0.734374         2.857956         0.529176
 H         0.918972         3.017164         2.193284
 H         3.200106         1.860527         1.403404
 H        -0.031395        -1.832743         1.148398
 H        -0.414921        -1.280086        -0.385972
 H         1.100239        -2.043815        -0.119728
 H         2.007348         0.136814         3.738457
