19
Iteration:  3047charge 0 multiplicity 1
 C        -1.191221         0.701885         2.230880
 C         0.182682         0.992286         1.737177
 C         0.984329         2.332365         1.506424
 C         2.156946         1.375943         1.268169
 O         1.887493         0.712113        -0.018676
 C         0.985063        -0.126709         0.722466
 C         0.159458        -1.167980         0.136137
 C         1.522708         0.168595         2.053706
 O         2.122014        -0.385797         3.110156
 H        -1.571267         1.601375         2.966996
 H        -1.785615         0.851138         1.326599
 H        -1.263800        -0.261706         2.804159
 H         0.529778         2.561524         0.545625
 H         1.012568         2.955487         2.375677
 H         3.144262         1.407119         1.290901
 H        -0.519794        -1.622686         0.965347
 H        -0.576796        -0.637982        -0.644970
 H         0.743684        -1.950568        -0.374858
 H         3.097779        -0.199211         3.137538
