19
Iteration:   702charge 0 multiplicity 1
 C        -1.187125         0.745303         2.237961
 C         0.189125         0.996589         1.729481
 C         0.905951         2.323295         1.479270
 C         2.185150         1.558369         1.203109
 O         1.772938         0.642061        -0.054257
 C         1.003010        -0.036215         0.777824
 C         0.255637        -1.247193         0.222783
 C         1.650992         0.281439         2.105401
 O         2.136299        -0.587503         3.023778
 H        -1.414707         0.879067         3.322043
 H        -1.868732         1.513628         1.809727
 H        -1.480938        -0.335676         2.015196
 H         0.486140         2.930881         0.663051
 H         1.113820         2.921832         2.365553
 H         3.079246         1.989265         0.941527
 H        -0.482199        -1.739363         0.935040
 H        -0.255718        -0.921754        -0.669440
 H         1.014860        -1.937622        -0.169477
 H         1.794385        -0.395504         3.913719
