19
Iteration:  2978
 C        -1.114736         0.688911         2.455510
 C         0.180818         0.896230         1.709947
 C         0.990555         2.309716         1.442930
 C         2.236261         1.375884         1.149939
 O         1.863535         0.819310        -0.093862
 C         0.930303        -0.064121         0.680516
 C         0.274335        -1.267632         0.131361
 C         1.565652         0.318972         2.054584
 O         1.941715        -0.392829         3.181251
 H        -1.355350         1.495871         3.160829
 H        -1.884046         0.707908         1.714199
 H        -1.128057        -0.263581         3.062844
 H         0.788056         2.797101         0.559428
 H         1.080283         2.859824         2.305609
 H         3.299631         1.735813         1.359935
 H        -0.430365        -1.695776         0.755855
 H        -0.279736        -0.998154        -0.729481
 H         1.025856        -1.980655        -0.203072
 H         1.800200        -1.324259         2.831335
