19
Iteration:  3159charge 0 multiplicity 1
 C        -1.091366         0.776428         2.416407
 C         0.187812         1.011844         1.704816
 C         0.964189         2.322374         1.470398
 C         2.206624         1.456525         1.186681
 O         1.923570         0.738217        -0.029487
 C         0.944944        -0.069635         0.702647
 C         0.320543        -1.338271         0.188190
 C         1.488634         0.323397         2.007344
 O         1.879367        -0.476339         3.036886
 H        -0.886717         0.956694         3.574615
 H        -1.911640         1.430625         1.935288
 H        -1.347655        -0.260215         2.652867
 H         0.508197         2.799483         0.606226
 H         0.836094         2.796231         2.447065
 H         3.244816         1.834857         1.212667
 H        -0.330618        -1.762646         1.013562
 H        -0.258148        -1.218990        -0.818096
 H         1.151826        -2.123336         0.098693
 H         2.445250        -1.183383         2.748294
