19
Iteration:   175
 C        -1.115488         0.705421         2.243824
 C         0.159364         0.974582         1.577679
 C         0.927588         2.259562         1.554145
 C         2.162992         1.441310         1.245132
 O         1.917194         0.659642        -0.029019
 C         0.907533        -0.102441         0.768266
 C         0.133184        -1.236209         0.126343
 C         1.563510         0.228114         2.030671
 O         2.192644        -0.296101         3.131453
 H        -1.409785         1.502650         2.918175
 H        -2.045599         0.503020         1.608614
 H        -1.053630        -0.219097         2.834981
 H         0.602093         3.003098         0.829030
 H         0.975375         2.576581         2.589097
 H         3.230365         1.777558         1.104160
 H        -0.782963        -1.616500         0.640030
 H        -0.159305        -0.850433        -0.922782
 H         0.835348        -2.034005        -0.085186
 H         1.756588        -0.457221         4.000666
