19
Iteration:  3708
 C        -1.026216         0.595991         2.514059
 C         0.222582         0.931167         1.808881
 C         0.930534         2.227822         1.393225
 C         2.162660         1.515154         1.107108
 O         1.917022         0.730978        -0.110923
 C         1.009569        -0.033793         0.723106
 C         0.239895        -1.148566        -0.029312
 C         1.519429         0.301804         2.071243
 O         1.905254        -0.519552         3.198763
 H        -1.482182         1.504680         3.044111
 H        -1.867605         0.237306         1.899651
 H        -0.971614        -0.133878         3.272712
 H         0.622160         2.772059         0.614051
 H         1.084930         2.895052         2.245010
 H         3.179152         2.000082         1.160691
 H        -0.800845        -1.387150         0.361862
 H        -0.041714        -0.721508        -1.009588
 H         0.797000        -2.083013        -0.244855
 H         2.183375         0.095717         3.901356
