19
Iteration:  2993
 C        -1.075758         0.692917         2.296715
 C         0.276440         0.947715         1.747925
 C         0.921564         2.261249         1.423544
 C         2.201536         1.462854         1.209264
 O         1.781516         0.729103        -0.087955
 C         0.994110        -0.058794         0.781943
 C         0.228574        -1.188737         0.090159
 C         1.591108         0.233626         2.050153
 O         1.996628        -0.412837         3.209757
 H        -1.313577         1.666219         2.918986
 H        -1.852566         0.508731         1.528873
 H        -1.114355        -0.122123         3.078187
 H         0.493362         3.013617         0.588468
 H         1.032934         2.744879         2.464097
 H         3.156600         1.810668         1.061284
 H        -0.551331        -1.532377         0.858136
 H        -0.292568        -0.663077        -0.850382
 H         0.854001        -2.067239        -0.232573
 H         2.047841        -1.382387         3.155086
