19
Iteration:  2761
 C        -1.012339         0.656219         2.541499
 C         0.145061         0.997506         1.588451
 C         1.070012         2.351000         1.457646
 C         2.188458         1.363932         1.189524
 O         1.833906         0.800522        -0.073049
 C         0.912590        -0.007516         0.712774
 C         0.368204        -1.289399         0.141050
 C         1.442555         0.301757         1.978157
 O         1.871653        -0.469493         3.149628
 H        -1.586883         1.597676         2.558115
 H        -1.663714        -0.165530         2.224513
 H        -0.747277         0.459267         3.616002
 H         0.846025         3.081935         0.586025
 H         1.140174         2.943816         2.389305
 H         3.117534         1.554575         1.308829
 H        -0.303643        -1.989672         0.653194
 H        -0.289380        -0.917176        -0.729004
 H         1.227044        -1.710694        -0.444352
 H         2.147109        -1.381736         3.013365
