19
Iteration:  2863charge 0 multiplicity 1
 C        -1.319122         0.664182         2.246193
 C         0.112799         1.024432         1.763225
 C         1.027151         2.357954         1.520371
 C         2.258298         1.367050         1.178008
 O         1.875062         0.651571        -0.064810
 C         0.896484        -0.060978         0.708288
 C         0.259702        -1.199091         0.137004
 C         1.508103         0.289672         2.101045
 O         2.172647        -0.371028         3.146316
 H        -1.274082         0.691114         3.371262
 H        -2.085543         1.362152         1.966776
 H        -1.554331        -0.334746         1.979931
 H         0.700737         2.975656         0.693656
 H         1.262428         2.899992         2.461016
 H         3.320913         1.648672         1.301624
 H        -0.321897        -1.662861         0.938490
 H        -0.469554        -0.940910        -0.627656
 H         0.935281        -1.946196        -0.239974
 H         2.364317        -1.249835         2.716035
