19
Iteration:  4106charge 0 multiplicity 1
 C        -1.148479         0.796565         2.404602
 C         0.192040         0.975258         1.692004
 C         0.882518         2.315295         1.439724
 C         2.157669         1.450469         1.184038
 O         1.932593         0.798210        -0.062794
 C         0.897143        -0.076972         0.685982
 C         0.290384        -1.305878         0.138813
 C         1.572832         0.288183         2.114320
 O         2.082738        -0.593237         3.037568
 H        -1.007816         0.957099         3.467506
 H        -1.995715         1.438247         2.165775
 H        -1.630333        -0.192963         2.408042
 H         0.507734         2.888925         0.555135
 H         0.886240         3.066708         2.355760
 H         3.208732         1.791202         1.263392
 H        -0.039558        -1.923345         0.979263
 H        -0.544075        -1.261851        -0.602696
 H         1.124373        -1.840378        -0.292541
 H         1.682798        -0.277469         3.891989
