19
Iteration:   836charge 0 multiplicity 1
 C        -0.987450         0.729554         2.498375
 C         0.247107         1.008370         1.709927
 C         0.895177         2.278856         1.513292
 C         2.198041         1.450107         1.100470
 O         1.836508         0.829872        -0.060994
 C         0.933173         0.020275         0.711254
 C         0.392553        -1.229085         0.113441
 C         1.542469         0.191881         1.951176
 O         1.819773        -0.627753         3.066993
 H        -2.016034         0.812413         1.962245
 H        -0.973725        -0.273895         3.025015
 H        -0.949276         1.515809         3.341061
 H         0.403974         2.953198         0.756652
 H         0.963873         2.869119         2.410624
 H         3.284200         1.743680         1.126282
 H         0.114156        -1.928826         0.803887
 H        -0.394801        -1.148542        -0.642128
 H         1.389582        -1.768687        -0.255429
 H         1.577837        -0.166683         3.901191
