19
Iteration:  2123
 C        -1.070032         0.730917         2.386890
 C         0.262047         0.975736         1.799438
 C         0.939265         2.331908         1.564867
 C         2.217238         1.409048         1.183478
 O         1.874607         0.822805        -0.108538
 C         0.868377        -0.015050         0.647302
 C         0.280150        -1.287855         0.070662
 C         1.480126         0.261396         2.016582
 O         1.980246        -0.570919         3.071271
 H        -1.984816         1.134586         1.864556
 H        -1.367877        -0.354824         2.553130
 H        -0.942282         1.253072         3.363419
 H         0.502694         2.844401         0.681727
 H         1.021852         2.946058         2.527087
 H         3.305573         1.865380         1.356742
 H         0.085829        -2.056340         0.951989
 H        -0.547383        -1.203766        -0.591041
 H         1.227486        -1.789245        -0.467444
 H         1.853026        -0.299071         4.026569
