19
Iteration:   102charge 0 multiplicity 1
 C        -1.111631         0.753184         2.321613
 C         0.180348         0.961273         1.669959
 C         0.865328         2.321205         1.414440
 C         2.220222         1.457484         1.178738
 O         1.919285         0.769952        -0.057331
 C         0.921046        -0.120848         0.800604
 C         0.283012        -1.345199         0.207711
 C         1.526321         0.392123         2.062684
 O         2.018979        -0.544080         3.052377
 H        -1.137692         1.313749         3.266794
 H        -1.919576         1.136230         1.724792
 H        -1.343025        -0.350924         2.496904
 H         0.517782         2.881044         0.529373
 H         0.884438         2.813370         2.422025
 H         3.255732         1.890046         1.278370
 H        -0.359055        -1.857116         1.036985
 H        -0.307360        -1.044070        -0.573603
 H         1.055150        -1.989873        -0.169300
 H         2.286219        -0.195651         3.901982
