19
Iteration:  2330
 C        -1.035611         0.767919         2.430209
 C         0.237016         0.985305         1.750342
 C         0.946717         2.305226         1.429789
 C         2.233904         1.485874         1.173914
 O         1.768148         0.767077        -0.107586
 C         0.938094        -0.003326         0.749632
 C         0.386242        -1.342800         0.093702
 C         1.581077         0.356911         2.088676
 O         1.861712        -0.615950         3.082097
 H        -0.972261         0.710252         3.500088
 H        -1.784604         1.580477         2.237381
 H        -1.399875        -0.226952         2.105146
 H         0.524869         2.808237         0.578080
 H         1.107744         2.957562         2.298339
 H         3.152737         1.819083         0.947701
 H         0.310977        -2.031582         0.966582
 H        -0.577376        -1.175426        -0.496706
 H         1.069911        -1.909565        -0.620764
 H         1.596202        -0.368075         4.003354
