19
Iteration:  1220
 C        -1.037995         0.786229         2.412788
 C         0.248300         1.024597         1.779365
 C         0.965435         2.326321         1.628359
 C         2.216400         1.465999         1.212591
 O         1.787163         0.813793        -0.119789
 C         0.910476         0.055768         0.627544
 C         0.420420        -1.269630         0.089891
 C         1.524064         0.154798         1.984484
 O         1.838602        -0.677550         3.050685
 H        -0.797677         0.884891         3.513817
 H        -1.834598         1.481020         2.195763
 H        -1.281448        -0.244126         2.331648
 H         0.485240         2.897456         0.816942
 H         1.239569         2.727600         2.560857
 H         3.205521         2.018766         1.102073
 H         0.420528        -2.055028         0.853584
 H        -0.447940        -1.314823        -0.676771
 H         1.245288        -1.453590        -0.586272
 H         1.339517        -0.410473         3.876345
