19
Iteration:  3892charge 0 multiplicity 1
 C        -1.098125         0.693119         2.368778
 C         0.231841         0.917253         1.797832
 C         0.939884         2.203200         1.445583
 C         2.124809         1.449759         1.105255
 O         1.842307         0.855356        -0.110630
 C         0.953352        -0.037287         0.755521
 C         0.293028        -1.253104         0.116089
 C         1.524303         0.273492         2.047498
 O         2.042058        -0.525171         3.147252
 H        -0.965515         0.745344         3.443436
 H        -1.507415         1.540549         1.963211
 H        -1.515581        -0.078339         1.826526
 H         0.286791         2.872044         0.769868
 H         1.123490         2.867182         2.298213
 H         3.180672         1.791054         1.172929
 H        -0.431404        -1.746866         0.780854
 H        -0.221531        -0.885172        -0.740262
 H         1.063581        -1.930417        -0.076191
 H         1.768806        -0.175388         4.044505
