19
Iteration:  3702charge 0 multiplicity 1
 C        -1.046547         0.574299         2.483341
 C         0.230440         1.006610         1.843979
 C         0.907779         2.287401         1.416459
 C         2.159232         1.435850         1.140550
 O         1.887924         0.756473        -0.144535
 C         1.054764        -0.079590         0.723082
 C         0.227592        -1.152599        -0.043282
 C         1.547157         0.237255         2.098295
 O         1.917749        -0.502286         3.197607
 H        -1.314180         1.477241         2.990712
 H        -1.858365         0.170965         1.821997
 H        -1.017265        -0.216098         3.328030
 H         0.518387         2.864727         0.393616
 H         1.145844         3.121508         2.150234
 H         3.129540         1.859216         1.078346
 H        -0.759893        -1.369068         0.320717
 H        -0.042250        -0.584465        -0.961238
 H         0.867269        -2.039819        -0.083098
 H         2.035385         0.173881         3.874421
