19
Iteration:  2449charge 0 multiplicity 1
 C        -1.179555         0.738733         2.165626
 C         0.336923         0.920381         1.811981
 C         0.840399         2.304397         1.542814
 C         2.216933         1.552545         1.115287
 O         1.811454         0.712836        -0.071629
 C         0.985365        -0.061205         0.775647
 C         0.110962        -1.175663         0.173151
 C         1.617772         0.240231         2.072919
 O         2.191985        -0.627125         3.136523
 H        -1.594830         1.659545         2.707708
 H        -1.818348         0.685716         1.258571
 H        -1.396549        -0.184132         2.733248
 H         0.274909         2.857543         0.729378
 H         0.931481         2.949571         2.464169
 H         3.163608         2.006106         0.951206
 H        -0.819298        -1.431616         0.778476
 H        -0.189659        -0.682293        -0.832994
 H         0.717880        -2.130147         0.063273
 H         2.102733        -0.102611         3.932602
