19
Iteration:  2731
 C        -1.014753         0.749085         2.489963
 C         0.299987         0.993398         1.808877
 C         0.953199         2.292185         1.556705
 C         2.186175         1.508988         1.100896
 O         1.895618         0.772682        -0.088958
 C         0.860439        -0.013569         0.680638
 C         0.308149        -1.331074         0.104994
 C         1.596403         0.234782         1.951354
 O         1.831698        -0.504091         3.107563
 H        -1.783014         1.392565         1.932094
 H        -1.274945        -0.255660         2.403919
 H        -1.118054         0.967269         3.527302
 H         0.501014         2.837235         0.740959
 H         1.193329         2.917128         2.361760
 H         3.199306         2.083868         1.170398
 H        -0.240551        -1.981360         0.686256
 H        -0.242872        -1.046736        -0.789053
 H         1.182549        -1.894015        -0.149361
 H         1.230465        -1.275236         3.207140
