19
Iteration:  1734
 C        -1.228843         0.637601         2.418937
 C         0.220564         0.974337         1.687172
 C         0.892137         2.325478         1.496321
 C         2.190487         1.480741         1.167328
 O         1.942154         0.763745        -0.040306
 C         0.943333        -0.025430         0.669155
 C         0.355662        -1.310808         0.193085
 C         1.628150         0.195626         1.930323
 O         1.933581        -0.436795         3.078039
 H        -0.731130         0.324656         3.406827
 H        -1.760238         1.594733         2.465671
 H        -1.963642        -0.038878         2.038101
 H         0.473338         2.946654         0.618288
 H         1.164400         2.949987         2.351822
 H         3.268984         1.785445         1.318537
 H        -0.301706        -1.682044         1.065895
 H        -0.222323        -1.091456        -0.810881
 H         0.984984        -2.098954         0.027067
 H         1.620168        -0.009542         3.868732
