19
Iteration:  4696charge 0 multiplicity 1
 C        -1.139132         0.711328         2.444017
 C         0.134067         0.970994         1.713344
 C         0.956470         2.213739         1.571422
 C         2.183355         1.539648         1.150289
 O         1.899902         0.743036        -0.128364
 C         0.902601        -0.010231         0.676892
 C         0.354429        -1.291311         0.258986
 C         1.548667         0.300442         2.028275
 O         1.948782        -0.477166         3.009310
 H        -1.128260         1.231165         3.433655
 H        -2.053076         0.953101         1.883574
 H        -1.275622        -0.377833         2.544127
 H         0.435234         2.813063         0.800628
 H         0.926675         2.938672         2.429806
 H         3.219939         1.843227         1.337786
 H         0.299222        -1.219572        -0.833100
 H         0.983068        -2.260217         0.512893
 H        -0.631649        -1.492707         0.393257
 H         2.913969        -0.650341         2.988869
