19
Iteration:   203
 C        -1.157953         0.734175         2.465111
 C         0.203518         0.971295         1.801630
 C         0.945200         2.267179         1.459626
 C         2.197656         1.450866         1.176106
 O         1.936337         0.681872        -0.106228
 C         0.950413        -0.084137         0.666806
 C         0.314897        -1.275723         0.083694
 C         1.536319         0.252563         1.995135
 O         1.980413        -0.348988         3.126086
 H        -1.299508         1.417275         3.362860
 H        -1.918645         0.854939         1.692878
 H        -1.348501        -0.244597         2.921592
 H         0.587414         2.861312         0.558022
 H         0.977406         2.936365         2.355520
 H         3.177726         1.760278         1.034408
 H        -0.306223        -1.778030         0.794045
 H        -0.333566        -1.011357        -0.753194
 H         1.130936        -2.004848        -0.175284
 H         1.351082        -0.665782         3.820656
