19
Iteration:   483
 C        -1.237624         0.852155         2.349592
 C         0.141759         0.972552         1.712119
 C         0.891908         2.288536         1.504520
 C         2.153251         1.430400         1.217016
 O         1.913881         0.750592        -0.096599
 C         0.953676         0.015132         0.717536
 C         0.375699        -1.342810         0.287172
 C         1.552099         0.272708         1.997541
 O         2.084474        -0.579043         2.959569
 H        -1.204086         1.501418         3.179424
 H        -2.166610         1.090317         1.795904
 H        -1.315393        -0.223546         2.695623
 H         0.514902         2.933673         0.684669
 H         1.111227         2.909695         2.454725
 H         3.191484         1.904002         1.237410
 H         0.090297        -2.040278         1.199581
 H        -0.463795        -1.314269        -0.410620
 H         1.182281        -1.885978        -0.160823
 H         1.680495        -0.243501         3.788853
