19
Iteration:  1112charge 0 multiplicity 1
 C        -1.165501         0.745377         2.213465
 C         0.306872         0.904883         1.869201
 C         0.948929         2.203181         1.633248
 C         2.186910         1.502897         1.158341
 O         1.796027         0.822720        -0.039078
 C         0.844635        -0.011246         0.782466
 C         0.166972        -1.066379         0.031234
 C         1.613169         0.157514         2.087214
 O         2.160620        -0.681340         3.040939
 H        -1.624358         1.724094         2.445724
 H        -1.623168         0.338507         1.342112
 H        -1.400472         0.085923         3.007400
 H         0.651804         2.842406         0.827969
 H         1.016097         2.895439         2.461960
 H         3.226431         1.974604         0.966524
 H        -0.775894        -1.448294         0.482462
 H        -0.121589        -0.623542        -0.953645
 H         0.803394        -1.888538        -0.063818
 H         2.281947        -0.165242         3.866460
