19
Iteration:  4714charge 0 multiplicity 1
 C        -1.152198         0.745059         2.493893
 C         0.215193         0.968279         1.816559
 C         0.830431         2.390631         1.488330
 C         2.153445         1.471735         1.103596
 O         1.905708         0.748764        -0.068502
 C         0.945711        -0.028720         0.651905
 C         0.447351        -1.375550         0.171733
 C         1.546306         0.307785         2.023281
 O         1.906594        -0.520485         3.031527
 H        -1.042921         1.131377         3.483612
 H        -1.914641         1.268734         1.919739
 H        -1.416523        -0.266732         2.649193
 H         0.532723         3.248134         0.866487
 H         1.101090         2.705695         2.432308
 H         3.077547         2.037684         1.081206
 H         0.278003        -1.375283        -0.923425
 H         1.162702        -2.083673         0.469937
 H        -0.586677        -1.665747         0.720810
 H         2.530171        -1.156498         2.608022
