19
Iteration:  4476charge 0 multiplicity 1
 C        -1.228502         0.745174         2.238280
 C         0.228700         0.994985         1.818315
 C         0.856564         2.351256         1.481243
 C         2.162953         1.483347         1.227721
 O         1.858674         0.695164        -0.008697
 C         0.906661         0.009164         0.786875
 C         0.348131        -1.266913         0.215657
 C         1.565112         0.318426         2.025748
 O         2.198718        -0.627767         2.939512
 H        -1.555484         1.252064         3.159303
 H        -1.986885         1.041498         1.490777
 H        -1.329715        -0.294152         2.497259
 H         0.316187         2.686471         0.542460
 H         0.576856         2.998786         2.322674
 H         3.164095         1.909840         1.254328
 H        -0.740861        -1.153611         0.088563
 H         0.746933        -1.479026        -0.727926
 H         0.435670        -2.157183         0.861180
 H         1.951408        -0.268790         3.799779
