19
Iteration:   973charge 0 multiplicity 1
 C        -1.224119         0.716952         2.351429
 C         0.196413         0.981638         1.786152
 C         0.999288         2.361912         1.578147
 C         2.252861         1.412062         1.253317
 O         1.803474         0.845997        -0.064740
 C         0.934762        -0.006521         0.693647
 C         0.306105        -1.277221         0.071359
 C         1.526509         0.205596         2.027935
 O         2.069487        -0.609838         2.964725
 H        -1.139979         0.032402         3.181915
 H        -1.516368         1.696393         2.785322
 H        -2.076010         0.426541         1.745020
 H         0.739493         3.161713         0.860219
 H         1.135727         2.914299         2.556880
 H         3.310564         1.667021         1.299473
 H        -0.153476        -2.030603         0.860375
 H        -0.459385        -0.859293        -0.584132
 H         1.018985        -1.893984        -0.448239
 H         1.832562        -0.385414         3.900504
