19
Iteration:  3215charge 0 multiplicity 1
 C        -1.161580         0.708012         2.243830
 C         0.244287         0.951986         1.816691
 C         1.019452         2.288868         1.488434
 C         2.164527         1.418647         1.202833
 O         1.784802         0.687408        -0.044771
 C         0.890131        -0.094646         0.804933
 C         0.191905        -1.220110         0.057206
 C         1.628664         0.283104         2.046125
 O         2.077265        -0.396641         3.192082
 H        -1.471142         1.604102         2.820968
 H        -1.896529         0.802017         1.334904
 H        -1.362776        -0.259959         2.636348
 H         0.588826         3.011378         0.795148
 H         1.083716         2.746258         2.457965
 H         3.203565         1.848979         1.137525
 H        -0.797537        -1.446718         0.483763
 H        -0.021290        -0.693440        -0.943023
 H         0.869500        -2.108668        -0.203364
 H         2.840705        -0.943900         2.925863
