19
Iteration:  2476
 C        -1.247092         0.743743         2.212499
 C         0.247279         0.908276         1.783323
 C         0.964571         2.254744         1.519551
 C         2.255083         1.400062         1.250983
 O         1.783245         0.766404        -0.048750
 C         0.912707        -0.027271         0.774064
 C         0.162723        -1.192175         0.167257
 C         1.593791         0.249190         2.030972
 O         2.229350        -0.500619         3.028863
 H        -1.732186         1.684802         2.401310
 H        -1.822899         0.148272         1.434812
 H        -1.384131         0.069551         3.090852
 H         0.678569         2.874302         0.682762
 H         0.866792         2.869136         2.411457
 H         3.373229         1.807028         1.269972
 H        -0.831479        -1.453253         0.656242
 H        -0.122561        -0.784924        -0.789492
 H         0.848660        -2.034442         0.151588
 H         1.826125        -0.232336         3.854012
