19
Iteration:  1261
 C        -1.086727         0.695437         2.413866
 C         0.239515         0.962489         1.723086
 C         0.914115         2.282802         1.586873
 C         2.208470         1.480108         1.266864
 O         1.937682         0.760473        -0.034387
 C         0.886683        -0.036294         0.689041
 C         0.215442        -1.196859        -0.024123
 C         1.508333         0.242730         1.985916
 O         2.032208        -0.540091         3.052128
 H        -0.956903         0.346150         3.474977
 H        -1.683928         1.627980         2.554040
 H        -1.635532        -0.138796         1.898645
 H         0.566616         2.928626         0.690048
 H         1.124371         2.943892         2.468405
 H         3.238651         1.734811         1.406075
 H        -0.141340        -1.859408         0.722113
 H        -0.536957        -0.794488        -0.688573
 H         0.928427        -1.891643        -0.626656
 H         1.513075        -0.346511         3.824543
