19
Iteration:  2664charge 0 multiplicity 1
 C        -1.248732         0.830556         2.168610
 C         0.145440         1.024032         1.927382
 C         0.978834         2.295599         1.634461
 C         2.141780         1.417295         1.296039
 O         1.883024         0.669001        -0.010597
 C         0.963179        -0.070068         0.727748
 C         0.131932        -1.199479         0.046144
 C         1.534206         0.198381         2.056613
 O         2.315972        -0.518346         2.933125
 H        -1.747881         0.356213         1.272605
 H        -1.259274         0.165772         2.985618
 H        -1.890638         1.672961         2.449958
 H         0.515230         2.835762         0.810488
 H         1.177239         2.990784         2.419823
 H         3.205846         1.860250         1.239707
 H        -0.621229        -1.692781         0.640473
 H        -0.440395        -0.787256        -0.800910
 H         0.776347        -2.061781        -0.160837
 H         1.914785        -0.467827         3.810429
