19
Iteration:  2349charge 0 multiplicity 1
 C        -1.031164         0.839675         2.467891
 C         0.280839         0.931192         1.724587
 C         0.906643         2.322242         1.434697
 C         2.181999         1.593019         1.036397
 O         1.820137         0.779478        -0.061585
 C         0.910388        -0.040550         0.712457
 C         0.439030        -1.299372         0.211232
 C         1.591282         0.126781         1.985621
 O         1.804715        -0.644415         3.124681
 H        -0.856404         0.782876         3.661249
 H        -1.502151         1.803113         2.345971
 H        -1.695033        -0.007011         2.340516
 H         0.407556         2.900928         0.566689
 H         1.044074         2.821742         2.443324
 H         3.184502         2.182114         1.045489
 H         0.569434        -2.142297         0.859615
 H        -0.430155        -1.186120        -0.610240
 H         1.186533        -1.618933        -0.620221
 H         1.299812        -0.138791         3.789219
