19
Iteration:  3391charge 0 multiplicity 1
 C        -1.121578         0.755880         2.243481
 C         0.213911         1.027410         1.751722
 C         0.838959         2.352933         1.428767
 C         2.141460         1.488076         1.161643
 O         1.789722         0.749637         0.015909
 C         0.971061        -0.003684         0.775943
 C         0.316140        -1.278626         0.164224
 C         1.641395         0.253218         2.094875
 O         2.083769        -0.586299         3.131422
 H        -1.290590         1.153716         3.218065
 H        -1.920582         1.410915         1.746942
 H        -1.355307        -0.250812         2.260575
 H         0.496277         2.940573         0.638577
 H         1.048764         2.904164         2.265958
 H         3.202116         1.860669         1.151100
 H        -0.435264        -1.783192         0.741253
 H        -0.027177        -1.174882        -0.825984
 H         0.994446        -2.112658        -0.097671
 H         1.857471        -1.456115         2.816435
