19
Iteration:  4246
 C        -1.166950         0.772116         2.189335
 C         0.221974         0.994082         1.763925
 C         0.855060         2.237431         1.523743
 C         2.130934         1.474109         1.221343
 O         1.815213         0.725020        -0.049642
 C         0.961386        -0.010469         0.769030
 C         0.288811        -1.193797         0.220315
 C         1.556207         0.289549         2.132358
 O         2.212977        -0.632385         2.984523
 H        -1.508900         1.541004         2.996259
 H        -1.780448         1.070321         1.320456
 H        -1.412060        -0.265948         2.467971
 H         0.311700         2.618353         0.650745
 H         0.958324         3.025550         2.225850
 H         3.100767         2.017886         1.087698
 H        -0.394055        -1.608163         1.014405
 H        -0.447049        -0.920133        -0.583257
 H         0.849077        -2.153951        -0.168148
 H         2.271405        -0.326703         3.899599
