19
Iteration:  4308
 C        -1.115777         0.763446         2.315853
 C         0.159447         0.985778         1.694936
 C         0.990687         2.350104         1.555379
 C         2.171295         1.408916         1.222038
 O         1.858149         0.756847        -0.075460
 C         0.798650         0.052108         0.750722
 C         0.395553        -1.384512         0.258886
 C         1.579686         0.269151         2.005505
 O         2.001564        -0.559334         2.964201
 H        -1.156751         1.100248         3.306795
 H        -1.829798         1.333079         1.681856
 H        -1.490110        -0.218993         2.295098
 H         0.554094         2.961006         0.720369
 H         1.155044         2.834700         2.517301
 H         3.113368         1.932894         1.321272
 H         0.554255        -2.157822         0.978661
 H        -0.567588        -1.478678        -0.189665
 H         1.117229        -1.442962        -0.513195
 H         1.598977        -0.123576         3.724804
