19
Iteration:  4566
 C        -1.155008         0.678330         2.454790
 C         0.213860         0.906189         1.787253
 C         0.888194         2.397389         1.469631
 C         2.114146         1.482639         1.084304
 O         1.817705         0.709625        -0.106534
 C         0.930732        -0.009269         0.746699
 C         0.410629        -1.245960         0.108539
 C         1.587902         0.356192         1.986269
 O         2.051755        -0.580211         3.125455
 H        -1.052956         1.023789         3.530018
 H        -1.907380         1.262209         1.922062
 H        -1.295794        -0.475373         2.474229
 H         0.458729         3.140080         0.755103
 H         1.077146         2.736175         2.596272
 H         3.099367         1.869712         0.931620
 H         0.486832        -1.031261        -0.965148
 H         1.123073        -2.187454         0.325694
 H        -0.556525        -1.483519         0.424956
 H         1.331442        -0.469607         3.758193
