19
Iteration:  4768
 C        -1.145582         0.756963         2.456120
 C         0.177954         1.006423         1.792818
 C         0.892357         2.349083         1.515729
 C         2.168138         1.459516         1.168025
 O         1.839477         0.709015        -0.113615
 C         0.925391        -0.051432         0.712263
 C         0.456549        -1.302577         0.088671
 C         1.513402         0.229607         2.035677
 O         1.989054        -0.464316         3.106669
 H        -1.145468         1.168303         3.487118
 H        -1.952977         1.268635         1.842119
 H        -1.450356        -0.310464         2.405490
 H         0.630560         3.011898         0.646290
 H         1.072751         3.080297         2.272143
 H         3.104212         2.011883         1.234918
 H        -0.388658        -1.203503        -0.636197
 H         1.249017        -1.745959        -0.380432
 H         0.047983        -1.984558         0.951770
 H         2.273334        -1.336535         2.769606
