19
Iteration:  2529
 C        -1.097212         0.824463         2.482397
 C         0.231632         0.897751         1.729703
 C         0.932803         2.305652         1.494579
 C         2.189982         1.427049         1.134894
 O         1.804442         0.814443        -0.052390
 C         0.921655        -0.053163         0.717658
 C         0.435472        -1.278305         0.070284
 C         1.656582         0.273246         2.007779
 O         1.827864        -0.640411         3.041794
 H        -1.584448         1.772162         2.337718
 H        -1.781394        -0.121580         2.416874
 H        -0.837003         0.889551         3.606330
 H         0.627685         2.924950         0.613053
 H         0.937843         3.009942         2.406552
 H         3.187945         1.844899         1.149762
 H        -0.281714        -1.799788         0.921023
 H        -0.392588        -1.046827        -0.700708
 H         1.414281        -1.778263        -0.279996
 H         1.895787        -0.006895         3.753200
