19
Iteration:  1487charge 0 multiplicity 1
 C        -1.164684         0.683733         2.205406
 C         0.323818         0.946532         1.933689
 C         0.889674         2.220569         1.443901
 C         2.169189         1.539309         1.110475
 O         1.833522         0.677652        -0.054913
 C         0.924486        -0.047656         0.760542
 C         0.200156        -1.117842         0.007247
 C         1.622005         0.251792         2.109615
 O         2.103498        -0.508476         3.205476
 H        -1.881087         1.221036         1.639414
 H        -1.254553        -0.341779         1.801954
 H        -1.392527         0.527883         3.311819
 H         0.437566         2.872760         0.702372
 H         0.997191         2.924716         2.376165
 H         3.222723         1.898553         1.179247
 H        -0.619176        -1.592900         0.619858
 H        -0.392135        -0.790284        -0.776799
 H         0.946131        -1.834680        -0.467647
 H         1.934974        -0.070308         4.070750
