19
Iteration:   417charge 0 multiplicity 1
 C        -1.077055         0.601732         2.431629
 C         0.310303         0.980458         1.823574
 C         0.937711         2.296289         1.439249
 C         2.204455         1.461231         1.069348
 O         1.818258         0.751487        -0.084075
 C         0.970779        -0.091845         0.760338
 C         0.365061        -1.253021         0.041005
 C         1.600739         0.349120         2.056696
 O         1.757757        -0.475861         3.126614
 H        -1.389438         1.525752         2.756421
 H        -1.901574         0.149609         1.882086
 H        -0.911859        -0.008234         3.354686
 H         0.536069         2.933571         0.642995
 H         1.311401         2.913699         2.326596
 H         3.170325         2.034667         0.817371
 H        -0.233710        -1.864258         0.806670
 H        -0.231897        -0.944532        -0.757961
 H         1.119871        -1.881534        -0.250753
 H         2.121236        -0.154909         3.986432
