19
Iteration:  3382
 C        -1.188304         0.835721         2.319806
 C         0.203384         0.988334         1.726317
 C         0.891376         2.328289         1.461651
 C         2.203488         1.500519         1.161377
 O         1.838359         0.791079        -0.072890
 C         0.954436        -0.059170         0.769380
 C         0.338246        -1.344609         0.159395
 C         1.611261         0.302664         2.139095
 O         2.033835        -0.585987         3.112535
 H        -1.290477         0.916200         3.350725
 H        -1.981607         1.307070         1.707688
 H        -1.377162        -0.268015         2.150863
 H         0.399750         2.873020         0.705549
 H         0.852121         2.879203         2.319187
 H         3.211650         1.932903         1.066833
 H        -0.408235        -1.750086         0.922942
 H        -0.242978        -1.024993        -0.684529
 H         1.187117        -2.044717        -0.064303
 H         2.091139        -1.473137         2.762995
