19
Iteration:  3883charge 0 multiplicity 1
 C        -1.150581         0.698909         2.308081
 C         0.216225         0.923423         1.780979
 C         0.879642         2.258074         1.468436
 C         2.197208         1.431601         1.099067
 O         1.844824         0.764981        -0.075889
 C         0.948426        -0.049949         0.756257
 C         0.287717        -1.165288         0.164650
 C         1.550466         0.280519         2.098338
 O         2.095048        -0.544324         3.081272
 H        -1.245154         0.620335         3.434803
 H        -1.801458         1.560557         2.146597
 H        -1.747420        -0.085042         1.941838
 H         0.614292         2.930413         0.545413
 H         0.931911         2.828615         2.452834
 H         3.119432         2.009813         1.036790
 H        -0.354528        -1.832666         0.793946
 H        -0.212746        -0.870930        -0.715343
 H         1.166955        -1.820982        -0.106932
 H         1.906066        -0.160846         3.981278
