19
Iteration:   615
 C        -1.074173         0.740041         2.507142
 C         0.313666         0.984363         1.763376
 C         0.920359         2.355416         1.350880
 C         2.245909         1.587148         1.038892
 O         1.782303         0.677670        -0.054019
 C         0.889472        -0.021938         0.779821
 C         0.422711        -1.267797         0.107610
 C         1.614959         0.229515         2.074241
 O         1.799771        -0.578408         3.125016
 H        -0.966183         0.254131         3.472915
 H        -1.623207         1.701583         2.554658
 H        -1.613165        -0.112321         1.960025
 H         0.439700         2.719619         0.413580
 H         0.864716         3.086367         2.187294
 H         3.263955         1.727478         0.884493
 H        -0.042150        -2.126186         0.750865
 H        -0.114149        -1.123958        -0.817831
 H         1.404385        -1.686990        -0.279422
 H         1.631186        -0.067777         3.984781
