19
Iteration:  2821charge 0 multiplicity 1
 C        -1.167619         0.749508         2.277016
 C         0.242044         0.899208         1.761270
 C         0.909701         2.233851         1.446027
 C         2.203321         1.493348         1.133696
 O         1.792085         0.726373        -0.043359
 C         1.044136        -0.100225         0.734983
 C         0.160431        -1.172262         0.080204
 C         1.679416         0.270067         2.121201
 O         2.021975        -0.454372         3.238839
 H        -1.368221         1.438293         3.117403
 H        -1.847028         0.995851         1.418169
 H        -1.465366        -0.252277         2.576250
 H         0.519267         2.865523         0.691258
 H         0.903718         2.812858         2.398480
 H         3.375386         1.862444         0.956634
 H        -0.520477        -1.708054         0.758464
 H        -0.355367        -0.577712        -0.605209
 H         0.683231        -1.966920        -0.408120
 H         2.753286        -1.060541         3.037167
