19
Iteration:  3197
 C        -1.113994         0.813842         2.252803
 C         0.284971         0.931441         1.784603
 C         0.889722         2.220022         1.530197
 C         2.234322         1.413935         1.078478
 O         1.739309         0.741900        -0.057914
 C         0.980058        -0.079194         0.796816
 C         0.290845        -1.138272         0.112774
 C         1.555142         0.227544         2.096283
 O         1.974579        -0.489774         3.171808
 H        -1.332370         1.373479         3.084391
 H        -1.830492         0.945193         1.481621
 H        -1.321752        -0.217310         2.660718
 H         0.549721         2.828014         0.648659
 H         1.004386         2.996357         2.311662
 H         3.298901         1.672302         0.988662
 H        -0.561477        -1.496754         0.662968
 H         0.027769        -0.964376        -0.864702
 H         0.931463        -2.025435         0.153672
 H         2.910842        -0.575043         2.945373
