19
Iteration:  3774
 C        -1.240645         0.726232         2.350356
 C         0.268545         0.961372         1.787265
 C         0.959791         2.320998         1.556089
 C         2.226654         1.450331         1.132254
 O         1.800765         0.783210        -0.107629
 C         0.817518         0.038082         0.752747
 C         0.437680        -1.306579         0.225318
 C         1.603711         0.272993         1.941521
 O         2.014930        -0.597137         3.037719
 H        -1.285161         1.446241         3.256529
 H        -1.976725         0.929190         1.528198
 H        -1.442638        -0.280949         2.634127
 H         0.568766         2.824737         0.765441
 H         1.061964         3.028954         2.387809
 H         3.288270         1.794838         1.230158
 H        -0.049186        -1.972327         1.028149
 H        -0.324462        -1.056237        -0.485011
 H         1.385997        -1.673082        -0.218472
 H         1.403911        -0.339570         3.748410
