19
Iteration:  3356
 C        -1.169123         0.829460         2.393249
 C         0.207948         0.942496         1.728574
 C         0.900734         2.285717         1.501745
 C         2.161283         1.385595         1.207268
 O         1.893576         0.746919        -0.039643
 C         0.918656         0.032663         0.646575
 C         0.411414        -1.311244         0.223439
 C         1.548899         0.268213         1.988252
 O         1.911856        -0.503665         3.023941
 H        -1.092457         0.931048         3.503656
 H        -1.893833         1.460857         1.828652
 H        -1.579575        -0.122699         2.233941
 H         0.374583         2.952093         0.835200
 H         1.116552         2.816867         2.448221
 H         3.204283         1.758446         1.222704
 H         0.140896        -1.769801         1.107585
 H        -0.464314        -1.274265        -0.441315
 H         1.294439        -1.769643        -0.135290
 H         2.806548        -0.825004         3.084160
