19
Iteration:  3431
 C        -1.282270         0.653083         2.287055
 C         0.157425         0.981234         1.805412
 C         0.943158         2.310670         1.515327
 C         2.188949         1.380729         1.216109
 O         1.901487         0.740204        -0.010077
 C         0.926223        -0.105399         0.682429
 C         0.239405        -1.221228         0.070892
 C         1.542770         0.264823         2.007776
 O         2.211853        -0.374057         3.107285
 H        -1.494712         1.507903         3.087335
 H        -2.027750         0.701693         1.483010
 H        -1.433048        -0.264493         2.902034
 H         0.600969         3.090243         0.689319
 H         1.338555         2.927908         2.512861
 H         3.216368         1.738370         1.395353
 H        -0.681126        -1.194214         0.601272
 H         0.052236        -0.960707        -1.037381
 H         0.858926        -2.075518         0.299474
 H         1.736795        -1.250335         3.202449
