19
Iteration:  1858
 C        -1.196124         0.709263         2.141490
 C         0.257756         0.917368         1.848821
 C         0.857445         2.319304         1.513836
 C         2.207669         1.451487         1.230433
 O         1.800943         0.698043        -0.095317
 C         0.938834        -0.024493         0.760379
 C         0.238419        -1.141121         0.162150
 C         1.569735         0.243220         2.044064
 O         2.202485        -0.547477         3.117206
 H        -1.561860         1.201652         3.044546
 H        -1.761883         1.061093         1.246984
 H        -1.323808        -0.397208         2.347906
 H         0.365900         2.797769         0.674631
 H         0.959353         2.942649         2.368731
 H         3.198783         1.835252         1.316588
 H        -0.321564        -1.593767         0.923360
 H        -0.378365        -0.791132        -0.626727
 H         0.937056        -1.969610        -0.188186
 H         1.914662         0.040485         3.839129
