19
Iteration:  2472
 C        -1.225233         0.744290         2.191594
 C         0.269979         0.897829         1.790230
 C         0.950755         2.231075         1.499280
 C         2.213012         1.424631         1.251166
 O         1.797913         0.782692        -0.062877
 C         0.886938        -0.042418         0.789635
 C         0.161655        -1.154492         0.166564
 C         1.606738         0.252868         2.046280
 O         2.237214        -0.519808         3.050157
 H        -1.762120         1.700635         2.380109
 H        -1.822022         0.233699         1.380517
 H        -1.316436         0.052222         3.066388
 H         0.697520         2.863527         0.614123
 H         0.955194         2.783436         2.485511
 H         3.154934         1.703233         1.157347
 H        -0.789306        -1.422819         0.791761
 H        -0.115894        -0.793575        -0.895912
 H         0.802653        -2.097655         0.202621
 H         1.838431        -0.233616         3.913756
