19
Iteration:  1520
 C        -1.195325         0.744262         2.294098
 C         0.220252         0.920584         1.676860
 C         0.896312         2.281637         1.468248
 C         2.167427         1.422348         1.257590
 O         1.820096         0.697274        -0.010602
 C         0.961429        -0.051543         0.745223
 C         0.279228        -1.196532         0.025136
 C         1.548094         0.268374         2.103532
 O         2.163332        -0.452860         3.073689
 H        -1.864443         1.566243         2.389290
 H        -1.670963        -0.132846         1.814433
 H        -1.182170         0.277768         3.349601
 H         0.714842         3.045854         0.702891
 H         0.841390         2.679975         2.567546
 H         3.211347         1.661511         1.555645
 H        -0.560374        -1.550831         0.668715
 H        -0.107321        -0.801624        -0.860948
 H         0.898885        -2.167730        -0.182919
 H         2.020673         0.082739         3.843654
