19
Iteration:  1549charge 0 multiplicity 1
 C        -1.216356         0.783508         2.409381
 C         0.216847         0.910850         1.743651
 C         0.853832         2.324777         1.507383
 C         2.194941         1.495490         1.178381
 O         1.949045         0.767970        -0.031268
 C         0.937545         0.015355         0.655977
 C         0.368074        -1.351100         0.130757
 C         1.578579         0.261296         1.996191
 O         1.975633        -0.565810         3.011293
 H        -1.645313         1.764201         2.699779
 H        -1.983434         0.118995         1.946662
 H        -1.059844         0.327848         3.357283
 H         0.408313         2.998578         0.730779
 H         0.961013         2.711902         2.458226
 H         3.242931         1.827945         1.479308
 H        -0.306321        -1.779968         0.942369
 H        -0.060202        -1.207695        -0.920793
 H         1.044086        -2.109594         0.115710
 H         1.965347         0.071290         3.748938
