19
Iteration:   218
 C        -1.051025         0.785476         2.457107
 C         0.275276         0.995687         1.813451
 C         0.917667         2.282712         1.338123
 C         2.216369         1.440083         1.142685
 O         1.804036         0.765088        -0.048925
 C         0.915007        -0.064391         0.750806
 C         0.384648        -1.354867         0.088436
 C         1.571486         0.272782         2.025251
 O         1.915184        -0.472544         3.158962
 H        -1.145309         1.312806         3.427240
 H        -1.987622         1.106806         1.853067
 H        -1.151652        -0.311990         2.579755
 H         0.502131         2.604607         0.347693
 H         1.103138         3.105822         2.032821
 H         3.158598         1.983853         1.345032
 H        -0.134258        -2.096300         0.705881
 H        -0.300248        -1.055907        -0.805288
 H         1.231426        -1.815603        -0.397812
 H         1.024939        -0.559907         3.475994
