19
Iteration:   450
 C        -1.036938         0.706506         2.441348
 C         0.205224         1.017790         1.694182
 C         0.887368         2.370201         1.354985
 C         2.138350         1.481815         1.179620
 O         1.897798         0.775618        -0.047663
 C         0.951845         0.005433         0.711342
 C         0.385224        -1.314950         0.209576
 C         1.580222         0.259544         2.062740
 O         1.868001        -0.637036         3.025429
 H        -1.193777         1.565876         2.995760
 H        -2.004550         0.389419         2.018740
 H        -0.796286         0.062075         3.352615
 H         0.537101         2.917175         0.455478
 H         1.112916         3.145863         2.191926
 H         3.165039         2.017703         1.016557
 H         0.017773        -1.914035         1.155973
 H        -0.425452        -1.337313        -0.502812
 H         1.173016        -1.801462        -0.253019
 H         1.383680        -0.339326         3.780735
