19
Iteration:  4567
 C        -1.151797         0.678583         2.455065
 C         0.213720         0.900653         1.786521
 C         0.885821         2.392708         1.467426
 C         2.108676         1.483609         1.087620
 O         1.821939         0.705006        -0.113077
 C         0.926461        -0.005542         0.747441
 C         0.416713        -1.235970         0.114011
 C         1.574442         0.355768         1.985677
 O         2.059515        -0.575814         3.128136
 H        -1.072217         1.013436         3.522788
 H        -1.885856         1.235499         1.940969
 H        -1.276210        -0.456396         2.477573
 H         0.491986         3.125481         0.756166
 H         1.083749         2.725407         2.568119
 H         3.112057         1.840914         0.961222
 H         0.483774        -1.007755        -0.959368
 H         1.105984        -2.188060         0.319983
 H        -0.589763        -1.451086         0.400135
 H         1.315712        -0.500401         3.751919
