19
Iteration:  4471
 C        -1.253370         0.739599         2.238745
 C         0.243697         1.020103         1.803432
 C         0.837428         2.298292         1.452845
 C         2.182964         1.503630         1.215891
 O         1.846991         0.732384        -0.035424
 C         0.890161         0.004784         0.771276
 C         0.304900        -1.238968         0.236397
 C         1.619700         0.229689         2.102645
 O         2.211139        -0.610996         2.968855
 H        -1.557605         1.290820         3.149459
 H        -1.959518         0.978032         1.345901
 H        -1.430892        -0.339046         2.501006
 H         0.427983         2.690714         0.502836
 H         0.715572         2.942072         2.342789
 H         3.131872         2.092828         1.154040
 H        -0.771468        -1.143166         0.062255
 H         0.781711        -1.385744        -0.810298
 H         0.577055        -2.148469         0.827290
 H         1.820254        -0.366017         3.845177
