19
Iteration:  2124
 C        -1.064777         0.726160         2.390485
 C         0.255951         0.973843         1.803780
 C         0.943419         2.331827         1.559377
 C         2.227580         1.414247         1.178408
 O         1.869905         0.817339        -0.109893
 C         0.870386        -0.004418         0.650120
 C         0.293084        -1.288134         0.067575
 C         1.471987         0.259972         2.023575
 O         1.974399        -0.576436         3.068398
 H        -1.911714         1.155803         1.883816
 H        -1.383789        -0.352856         2.557029
 H        -0.936927         1.233880         3.372159
 H         0.508672         2.862589         0.692803
 H         0.998594         2.967567         2.500209
 H         3.265721         1.888050         1.354470
 H         0.069097        -2.035833         0.963832
 H        -0.569518        -1.236340        -0.582088
 H         1.217725        -1.776611        -0.468445
 H         1.819877        -0.279818         4.011199
