19
Iteration:  3519charge 0 multiplicity 1
 C        -1.060876         0.623687         2.388716
 C         0.215434         0.945580         1.692651
 C         0.937379         2.324125         1.442132
 C         2.247905         1.537490         1.189683
 O         1.885296         0.698565        -0.007104
 C         0.923051        -0.022957         0.755202
 C         0.290829        -1.216588         0.111300
 C         1.529327         0.276778         2.031906
 O         1.929016        -0.543120         3.074094
 H        -1.194878         1.281868         3.304734
 H        -1.822721         0.760013         1.706378
 H        -1.226385        -0.388820         2.739295
 H         0.557487         2.889989         0.602276
 H         0.922973         2.925963         2.369528
 H         3.098620         2.221371         1.068236
 H        -0.090141        -2.020178         0.667238
 H        -0.614569        -0.946850        -0.487075
 H         1.046576        -1.688361        -0.509032
 H         1.859024         0.097123         3.836962
