19
Iteration:  2719charge 0 multiplicity 1
 C        -1.059778         0.751044         2.430364
 C         0.290612         0.941340         1.842901
 C         0.931526         2.379428         1.508894
 C         2.193958         1.470496         1.132284
 O         1.858288         0.805847        -0.093927
 C         0.947947        -0.079412         0.701723
 C         0.298766        -1.292005         0.105940
 C         1.544053         0.241074         2.026486
 O         1.939274        -0.551047         3.100693
 H        -1.790129         1.165830         1.670602
 H        -1.392027        -0.215245         2.610326
 H        -1.114240         1.380004         3.310404
 H         0.504185         3.124023         0.815709
 H         1.053463         2.821958         2.461939
 H         3.246336         1.867363         0.961347
 H        -0.390692        -1.698351         0.768199
 H        -0.291283        -1.095495        -0.817241
 H         1.057407        -1.951004        -0.268228
 H         1.155782        -1.174969         3.108928
