19
Iteration:  3996charge 0 multiplicity 1
 C        -1.121643         0.728670         2.340326
 C         0.207957         0.961564         1.725085
 C         0.837813         2.364581         1.463310
 C         2.153936         1.512793         1.138742
 O         1.840455         0.725494        -0.046777
 C         0.976024        -0.025883         0.717186
 C         0.325242        -1.165370         0.195692
 C         1.558321         0.216560         2.076590
 O         2.077643        -0.686160         3.062412
 H        -1.288041         1.623279         2.889893
 H        -1.914502         0.650940         1.520320
 H        -0.995150        -0.057214         3.139560
 H         0.397165         2.860771         0.578130
 H         1.097909         2.949079         2.435949
 H         3.135108         1.969756         1.271795
 H        -0.320360        -1.596636         0.942603
 H        -0.309150        -0.775627        -0.682514
 H         0.901348        -1.955297        -0.388064
 H         1.916790        -0.180980         3.865752
