19
Iteration:  4138charge 0 multiplicity 1
 C        -1.041266         0.670231         2.489550
 C         0.258855         0.986258         1.701887
 C         0.952242         2.361747         1.517086
 C         2.140362         1.461126         1.192985
 O         1.833472         0.669977        -0.079587
 C         0.981128        -0.049132         0.670586
 C         0.316215        -1.227564         0.086264
 C         1.575765         0.259895         1.942552
 O         1.893234        -0.478448         3.100798
 H        -0.832093         1.058697         3.561000
 H        -1.992687         1.165353         2.257774
 H        -1.112325        -0.428175         2.582488
 H         0.553119         2.848163         0.599279
 H         0.836637         3.068203         2.440867
 H         3.191635         1.674775         0.999729
 H        -0.146878        -1.634305         0.959790
 H        -0.209491        -1.155486        -0.840645
 H         1.234116        -1.773117        -0.120195
 H         1.209938        -0.198588         3.712398
