19
Iteration:  2674charge 0 multiplicity 1
 C        -1.271570         0.789276         2.239705
 C         0.256965         0.981315         1.831559
 C         0.946431         2.327778         1.589059
 C         2.204676         1.373161         1.266973
 O         1.885801         0.708028         0.026201
 C         0.852414        -0.036073         0.713452
 C         0.157312        -1.224001         0.052845
 C         1.492900         0.272582         2.082090
 O         2.316087        -0.527061         2.938205
 H        -1.837451         0.406288         1.362656
 H        -1.486674         0.029050         2.967635
 H        -1.692456         1.764617         2.550928
 H         0.568917         2.886407         0.704630
 H         1.174121         2.996021         2.431892
 H         3.204268         1.572042         1.568501
 H        -0.597643        -1.459586         0.814815
 H        -0.364837        -1.045061        -0.918372
 H         0.908561        -1.967205        -0.280198
 H         1.796831        -0.645301         3.769058
