19
Iteration:  3193charge 0 multiplicity 1
 C        -1.113496         0.794551         2.275469
 C         0.264130         0.952759         1.807848
 C         0.919989         2.235546         1.519620
 C         2.204375         1.433123         1.091743
 O         1.775892         0.747711        -0.096763
 C         0.972398        -0.051764         0.790889
 C         0.280061        -1.177441         0.120566
 C         1.579193         0.233830         2.061646
 O         1.963633        -0.529652         3.202072
 H        -1.246234         1.577028         3.085020
 H        -2.022442         1.053600         1.574966
 H        -1.301569        -0.228897         2.492234
 H         0.470942         2.734001         0.636507
 H         0.861172         2.960832         2.314446
 H         3.291128         1.744541         0.980344
 H        -0.597947        -1.464942         0.731073
 H        -0.024786        -1.059753        -0.982920
 H         1.087874        -2.018326         0.179580
 H         2.923716        -0.593734         3.009464
