19
Iteration:    45
 C        -1.055279         0.890996         2.420264
 C         0.240059         1.025769         1.684966
 C         0.915423         2.364563         1.434692
 C         2.156230         1.575667         1.098615
 O         1.728943         0.707670        -0.063586
 C         1.018780        -0.134145         0.775850
 C         0.590248        -1.421087         0.229376
 C         1.577806         0.324627         2.063129
 O         1.740979        -0.660042         3.006847
 H        -0.982804         1.190626         3.453497
 H        -1.860616         1.423518         1.956380
 H        -1.343578        -0.169641         2.520289
 H         0.612240         3.101465         0.724571
 H         1.089371         2.977067         2.330136
 H         3.125150         2.102370         0.921059
 H         0.409091        -2.132726         1.067326
 H        -0.209802        -1.412617        -0.452026
 H         1.481704        -1.786848        -0.262234
 H         1.389467        -0.335702         3.867930
