19
Iteration:  2045
 C        -1.187394         0.674745         2.208429
 C         0.220675         0.916884         1.841665
 C         0.914814         2.285150         1.489338
 C         2.213581         1.435716         1.193489
 O         1.821216         0.803021        -0.021760
 C         0.976344        -0.033449         0.828114
 C         0.145088        -1.094043         0.130791
 C         1.603654         0.328070         2.109786
 O         2.164811        -0.644858         2.963414
 H        -1.788163         0.345905         1.344151
 H        -1.244306        -0.147686         2.930439
 H        -1.684472         1.565626         2.619472
 H         0.564117         2.722049         0.502244
 H         1.007558         2.958032         2.388209
 H         3.307653         1.881542         1.426723
 H        -0.559719        -1.592983         0.844398
 H        -0.214038        -0.662981        -0.801450
 H         0.650619        -2.162291        -0.124418
 H         2.110017        -0.353976         3.893933
