19
Iteration:  1543
 C        -1.206917         0.764107         2.355297
 C         0.212239         0.934575         1.719842
 C         0.841936         2.299920         1.520718
 C         2.194868         1.510205         1.197462
 O         1.965727         0.780893        -0.003109
 C         0.913199        -0.028352         0.651601
 C         0.313227        -1.352886         0.117401
 C         1.537512         0.242759         1.993034
 O         2.030769        -0.531853         3.026897
 H        -1.517660         1.764133         2.638606
 H        -2.052888         0.117018         2.082583
 H        -0.980021         0.358215         3.414209
 H         0.431568         2.976013         0.780206
 H         1.162267         2.900839         2.494367
 H         3.214401         1.758228         1.489265
 H        -0.472068        -1.767051         0.741335
 H        -0.098200        -1.222081        -0.839894
 H         1.199705        -2.150738         0.023794
 H         2.057566         0.077120         3.829932
