19
Iteration:  1156charge 0 multiplicity 1
 C        -1.175835         0.705799         2.298333
 C         0.229708         0.983266         1.778262
 C         0.935031         2.324515         1.552284
 C         2.199574         1.399893         1.290064
 O         1.977161         0.794052         0.048143
 C         0.853762         0.040287         0.689322
 C         0.173852        -1.176555         0.144575
 C         1.531993         0.269788         2.038281
 O         2.105015        -0.690898         2.837779
 H        -1.434079         1.661686         2.782503
 H        -1.979569         0.477040         1.645801
 H        -1.248073         0.005301         3.080216
 H         0.527438         3.021306         0.789945
 H         1.155713         2.844195         2.535536
 H         3.198279         1.939451         1.572108
 H        -0.573649        -1.702670         0.836058
 H        -0.471226        -1.063543        -0.811571
 H         0.995664        -1.761609        -0.155806
 H         2.105017        -0.398946         3.758618
