19
Iteration:  2907charge 0 multiplicity 1
 C        -1.089752         0.845896         2.388572
 C         0.295656         0.933249         1.811745
 C         0.866947         2.312833         1.441376
 C         2.129334         1.452420         1.137079
 O         1.836378         0.822707        -0.122611
 C         0.944998        -0.030028         0.641032
 C         0.395614        -1.299521         0.164968
 C         1.613685         0.190137         2.077599
 O         1.848125        -0.556183         3.179182
 H        -1.103225         0.954539         3.507002
 H        -1.499210         1.798902         2.041020
 H        -1.715389         0.013172         2.192830
 H         0.554234         2.641209         0.404671
 H         0.924808         2.972833         2.352700
 H         3.153591         1.841104         0.980517
 H        -0.126007        -1.730181         1.068451
 H        -0.407826        -1.379512        -0.618777
 H         1.226082        -1.936412        -0.136920
 H         2.714380        -1.054500         3.067355
