19
Iteration:  3084charge 0 multiplicity 1
 C        -1.162069         0.785423         2.322907
 C         0.227959         0.915763         1.756911
 C         0.922189         2.292626         1.500859
 C         2.207305         1.447213         1.097143
 O         1.859246         0.687648        -0.066211
 C         0.940449        -0.044269         0.764432
 C         0.319403        -1.231764         0.128979
 C         1.571726         0.244152         2.055069
 O         1.942365        -0.468569         3.175697
 H        -1.128728         1.246088         3.308366
 H        -1.976383         1.362360         1.730111
 H        -1.612830        -0.216082         2.390251
 H         0.464591         3.071205         0.742418
 H         1.153022         3.000912         2.380248
 H         3.288351         1.816109         0.935499
 H        -0.125315        -1.959284         0.864164
 H        -0.559936        -0.890679        -0.536724
 H         1.001277        -1.848293        -0.539609
 H         2.901865        -0.757621         3.173989
