19
Iteration:  3325charge 0 multiplicity 1
 C        -1.132066         0.740572         2.426952
 C         0.222288         0.951008         1.653326
 C         1.032045         2.380102         1.488899
 C         2.155404         1.455074         1.209830
 O         1.818492         0.792611        -0.059402
 C         0.940813        -0.065598         0.700847
 C         0.368380        -1.388559         0.135197
 C         1.537510         0.325553         2.025811
 O         1.861829        -0.540174         3.085684
 H        -1.089645         1.097463         3.420245
 H        -1.985794         1.391778         1.975831
 H        -1.417414        -0.251690         2.393312
 H         0.715458         3.024991         0.777624
 H         1.311122         2.739507         2.359311
 H         3.197173         1.868463         1.104370
 H         0.291660        -2.161992         0.884355
 H        -0.555344        -1.278388        -0.450579
 H         1.142817        -1.754025        -0.611285
 H         2.560376        -0.249910         3.742746
