19
Iteration:  2480
 C        -1.255804         0.722028         2.229473
 C         0.204726         0.936536         1.778856
 C         0.977922         2.279130         1.543943
 C         2.292860         1.391212         1.241421
 O         1.778166         0.749864        -0.033875
 C         0.928375        -0.025099         0.749521
 C         0.166553        -1.220545         0.176492
 C         1.597272         0.235532         2.036551
 O         2.216185        -0.484525         3.003394
 H        -1.715960         1.727977         2.429775
 H        -1.779385         0.181449         1.510106
 H        -1.408494         0.162522         3.131617
 H         0.611151         2.898795         0.677084
 H         0.877251         2.969265         2.399414
 H         3.338020         1.799926         1.359475
 H        -0.753501        -1.472028         0.533861
 H        -0.119602        -0.839050        -0.812783
 H         0.863241        -2.036948         0.021979
 H         1.804784        -0.224863         3.871343
