19
Iteration:  4045
 C        -1.253689         0.775500         2.122820
 C         0.219194         0.969076         1.716741
 C         0.981753         2.364432         1.591511
 C         2.130296         1.436822         1.216114
 O         1.750722         0.758427        -0.029599
 C         0.926808        -0.033948         0.785877
 C         0.236415        -1.204207         0.279647
 C         1.556443         0.220281         2.000905
 O         2.242855        -0.624897         3.000385
 H        -1.702889         1.358779         3.028241
 H        -1.854684         0.957660         1.173353
 H        -1.252687        -0.351958         2.376527
 H         0.776029         3.068111         0.785239
 H         1.110462         2.786113         2.524350
 H         3.145445         1.909951         1.267301
 H         0.024156        -1.799111         1.220003
 H        -0.567168        -1.260893        -0.504329
 H         1.097098        -1.775071        -0.115355
 H         2.320627        -0.126659         3.854541
