19
Iteration:  4856
 C        -1.140604         0.592677         2.270177
 C         0.256961         1.003385         1.815079
 C         0.853898         2.299047         1.536198
 C         2.205113         1.482026         1.137323
 O         1.862213         0.646268        -0.048586
 C         0.934675        -0.115616         0.827634
 C         0.212117        -1.162602         0.047224
 C         1.601085         0.299155         2.060280
 O         2.075532        -0.366943         3.126002
 H        -1.489177         1.298746         3.122973
 H        -1.809430         0.563798         1.320303
 H        -1.155212        -0.457625         2.647104
 H         0.243690         3.109050         0.851639
 H         1.131791         2.877378         2.463954
 H         3.274181         1.939150         1.182278
 H        -0.509929        -0.628104        -0.589653
 H         0.880904        -1.668682        -0.562704
 H        -0.448056        -1.759681         0.792439
 H         2.362156        -1.273682         2.923714
