19
Iteration:   250charge 0 multiplicity 1
 C        -1.057772         0.818552         2.459233
 C         0.144544         1.016421         1.659485
 C         0.932505         2.280851         1.403965
 C         2.189602         1.518481         1.075303
 O         1.878893         0.705478        -0.085749
 C         0.928129        -0.039726         0.772408
 C         0.474536        -1.337662         0.207643
 C         1.535341         0.273941         2.025317
 O         1.831952        -0.584880         3.099523
 H        -0.752043         0.857625         3.530382
 H        -1.995879         1.416886         2.183173
 H        -1.477422        -0.171806         2.461547
 H         0.474136         2.954213         0.585986
 H         1.127964         2.847511         2.335452
 H         3.127532         2.053120         1.044301
 H         0.237901        -2.086281         0.925726
 H        -0.457793        -1.172328        -0.429510
 H         1.320271        -1.717814        -0.343402
 H         1.812980        -0.043517         3.947772
