19
Iteration:   848charge 0 multiplicity 1
 C        -1.056519         0.722230         2.551055
 C         0.186945         0.943080         1.722863
 C         0.944926         2.335203         1.548403
 C         2.219986         1.436900         1.208664
 O         1.907465         0.784563        -0.168165
 C         0.895287        -0.024746         0.640272
 C         0.402122        -1.281916         0.096098
 C         1.516013         0.287726         2.021055
 O         1.828683        -0.584887         3.011237
 H        -2.052700         0.535526         2.027590
 H        -0.805351        -0.183129         3.153464
 H        -1.224888         1.561333         3.292999
 H         0.582726         3.099085         0.823061
 H         1.135033         2.730212         2.555355
 H         3.246713         1.987113         1.285491
 H        -0.031758        -1.735689         0.913528
 H        -0.412781        -1.064572        -0.636709
 H         1.164317        -1.919766        -0.489844
 H         1.869003         0.011391         3.820926
