19
Iteration:  3854charge 0 multiplicity 1
 C        -1.215948         0.739792         2.230817
 C         0.156953         1.047598         1.778025
 C         0.884369         2.383142         1.467704
 C         2.157827         1.482680         1.249394
 O         1.925144         0.719276         0.008763
 C         0.931150        -0.119624         0.799578
 C         0.216782        -1.312462         0.210580
 C         1.545286         0.299757         2.073242
 O         2.195821        -0.579806         2.918109
 H        -1.418963         0.488002         3.255289
 H        -1.918005         1.630680         2.089225
 H        -1.752870        -0.151683         1.757993
 H         0.685729         2.957347         0.635340
 H         0.992222         2.929426         2.393848
 H         3.128327         1.946990         1.388833
 H        -0.221648        -2.031069         0.907118
 H        -0.488924        -1.048345        -0.603165
 H         1.018873        -1.841498        -0.384001
 H         2.489045        -0.122957         3.725793
