19
Iteration:  4258charge 0 multiplicity 1
 C        -1.160462         0.812356         2.110375
 C         0.275841         0.886906         1.873215
 C         0.839732         2.317349         1.512920
 C         2.204668         1.487301         1.138427
 O         1.799053         0.757671         0.029212
 C         0.849754         0.014727         0.774616
 C         0.280537        -1.265941         0.240146
 C         1.641326         0.244131         2.058364
 O         2.128305        -0.617431         2.974892
 H        -1.439491         1.386742         3.087314
 H        -1.756103         1.115694         1.242673
 H        -1.466063        -0.262544         2.350455
 H         0.411790         2.968897         0.751862
 H         0.815351         2.728987         2.525726
 H         3.216690         1.975734         1.006922
 H        -0.125297        -1.803284         1.148266
 H        -0.547467        -1.136281        -0.499114
 H         1.140944        -1.919616        -0.215814
 H         2.298324        -0.023020         3.748869
