19
Iteration:  3587
 C        -1.246993         0.815937         2.231661
 C         0.174108         0.980149         1.733186
 C         0.919301         2.320852         1.488411
 C         2.159183         1.483767         1.124965
 O         1.795699         0.763099        -0.065875
 C         0.943479        -0.047139         0.812628
 C         0.497498        -1.282310         0.274007
 C         1.508207         0.279046         2.101997
 O         2.082041        -0.655190         2.994510
 H        -1.322537         0.861177         3.324721
 H        -1.778318         1.677209         1.918137
 H        -1.902874         0.103140         1.911630
 H         0.536426         3.025581         0.755300
 H         1.105153         2.826579         2.486753
 H         3.240215         1.673239         0.985808
 H         0.403493        -2.131623         0.897192
 H        -0.486635        -1.185639        -0.066534
 H         1.181809        -1.599088        -0.478263
 H         2.080856        -0.343260         3.909813
