19
Iteration:  2183charge 0 multiplicity 1
 C        -1.065637         0.769462         2.479735
 C         0.255483         0.992991         1.761665
 C         0.890774         2.332785         1.468558
 C         2.184251         1.488904         1.152391
 O         1.895500         0.817193        -0.049745
 C         0.898432        -0.000147         0.652905
 C         0.372954        -1.259806         0.178211
 C         1.580341         0.189162         1.964136
 O         1.833080        -0.671448         2.999190
 H        -1.715884         1.668295         2.686758
 H        -1.575668        -0.067918         2.049029
 H        -0.787295         0.461438         3.510300
 H         0.484244         2.900613         0.590373
 H         1.042319         2.842741         2.434855
 H         3.115026         2.038177         1.316830
 H         0.086189        -1.813519         1.094835
 H        -0.322614        -1.341948        -0.796538
 H         1.224193        -1.926321         0.017488
 H         1.946531        -0.014499         3.712172
