19
Iteration:    38charge 0 multiplicity 1
 C        -1.066557         0.858761         2.410483
 C         0.258799         0.981523         1.712198
 C         0.908267         2.421061         1.422328
 C         2.154383         1.578658         1.013850
 O         1.719009         0.738016        -0.032403
 C         1.039417        -0.107345         0.793109
 C         0.612891        -1.364677         0.226869
 C         1.581290         0.230352         2.027313
 O         1.739984        -0.683909         3.065242
 H        -0.981020         1.356303         3.473949
 H        -1.757283         1.465187         1.774429
 H        -1.601510        -0.186507         2.556505
 H         0.433836         3.136012         0.626577
 H         1.005020         3.015974         2.411059
 H         3.229762         1.834847         0.857669
 H         0.310771        -2.090047         1.150075
 H        -0.246496        -1.311662        -0.454879
 H         1.452836        -1.886701        -0.288813
 H         1.498889        -0.144413         3.798868
