19
Iteration:   319
 C        -1.279868         0.768398         2.148451
 C         0.296612         0.971212         1.853930
 C         0.887790         2.335569         1.504658
 C         2.186561         1.476606         1.160589
 O         1.790557         0.659845        -0.055471
 C         0.939071        -0.043099         0.827928
 C         0.305157        -1.282931         0.191409
 C         1.609542         0.279931         2.078015
 O         2.130779        -0.441851         3.124463
 H        -1.523487         1.054869         3.141648
 H        -1.903330         1.260943         1.389242
 H        -1.700298        -0.309147         2.086285
 H         0.548995         2.636503         0.548034
 H         0.982432         3.101291         2.313409
 H         3.262131         2.004978         1.068644
 H        -0.401996        -1.833771         0.940399
 H        -0.308807        -0.962529        -0.573967
 H         1.040041        -2.000057        -0.109152
 H         2.488084        -1.261522         2.634427
