19
Iteration:  2422
 C        -1.177326         0.700244         2.300629
 C         0.270661         0.984863         1.772058
 C         0.934253         2.286012         1.466554
 C         2.182706         1.387878         1.149101
 O         1.833690         0.728064        -0.027951
 C         0.923278        -0.032649         0.768483
 C         0.249822        -1.206822         0.175518
 C         1.546693         0.347236         2.057973
 O         2.064656        -0.565479         3.025473
 H        -1.361897         1.124179         3.268550
 H        -1.952563         1.219789         1.739937
 H        -1.371000        -0.371855         2.381664
 H         0.559613         2.842495         0.611517
 H         1.314742         2.845498         2.312391
 H         3.228827         1.961285         1.256467
 H        -0.335470        -1.739416         0.903246
 H        -0.202627        -0.826728        -0.689921
 H         0.934708        -1.957500        -0.147996
 H         2.210449        -0.062843         3.827285
