19
Iteration:  1040charge 0 multiplicity 1
 C        -0.970061         0.662326         2.521144
 C         0.218495         0.987044         1.762447
 C         0.965574         2.338978         1.534215
 C         2.218708         1.457936         1.262678
 O         1.921881         0.817610        -0.050760
 C         0.912463         0.028157         0.655295
 C         0.304981        -1.222492         0.080855
 C         1.476361         0.256230         1.958125
 O         1.860427        -0.658301         2.947061
 H        -0.808829         0.931198         3.572138
 H        -1.858706         1.203080         2.062301
 H        -1.235915        -0.435734         2.555685
 H         0.429513         3.021501         0.729975
 H         0.936924         3.068409         2.411341
 H         3.199806         1.875843         1.284444
 H        -0.156477        -2.013026         0.828346
 H        -0.531382        -0.915280        -0.564235
 H         1.125770        -1.794146        -0.564692
 H         1.425250        -0.348464         3.748309
