19
Iteration:  3106charge 0 multiplicity 1
 C        -1.037169         0.795518         2.408539
 C         0.272665         1.034853         1.854494
 C         0.957332         2.278228         1.444446
 C         2.162195         1.475082         1.170587
 O         1.770871         0.736637        -0.126733
 C         0.997318        -0.094726         0.727493
 C         0.386004        -1.327675         0.110301
 C         1.553740         0.295571         2.035641
 O         1.849822        -0.471285         3.168649
 H        -1.262749         0.982786         3.454041
 H        -1.801804         1.430509         1.812818
 H        -1.373803        -0.183335         2.064358
 H         0.521465         2.935928         0.600443
 H         1.060806         3.057640         2.250492
 H         3.240238         1.841265         1.096476
 H         0.026563        -2.050553         0.879840
 H        -0.476597        -1.182962        -0.633511
 H         1.184609        -1.920599        -0.468437
 H         1.999718        -1.388921         2.972850
