19
Iteration:  4896
 C        -1.067588         0.724781         2.450020
 C         0.208322         0.958670         1.743170
 C         0.837337         2.337770         1.414269
 C         2.235387         1.418202         1.282646
 O         1.856811         0.862168        -0.025026
 C         0.913155        -0.035799         0.711369
 C         0.328531        -1.327581         0.078761
 C         1.555531         0.208881         1.974934
 O         1.968629        -0.441368         3.090345
 H        -1.185046         1.317447         3.305901
 H        -1.869256         0.927570         1.819381
 H        -1.220560        -0.273646         2.902216
 H         0.504604         2.721871         0.554668
 H         0.714407         2.892924         2.343325
 H         3.195872         1.840679         1.294417
 H        -0.163804        -1.107444        -0.855992
 H         1.085467        -2.175977        -0.021193
 H        -0.424808        -1.886901         0.659857
 H         2.584862        -1.153572         2.803180
