19
Iteration:   568
 C        -1.212171         0.699285         2.269665
 C         0.137854         0.959782         1.574508
 C         0.867264         2.356672         1.466911
 C         2.188378         1.422781         1.246967
 O         1.932770         0.692810         0.003131
 C         0.903761        -0.097335         0.793543
 C         0.198856        -1.268671         0.228220
 C         1.671342         0.295803         2.030171
 O         2.189731        -0.472383         3.015541
 H        -1.110337         0.411128         3.364554
 H        -1.643423         1.755866         2.154582
 H        -1.946867        -0.126805         1.968443
 H         0.640981         3.167453         0.790121
 H         0.930610         2.674110         2.542278
 H         3.226676         1.925854         1.255206
 H        -0.610664        -1.558034         1.036507
 H        -0.453171        -0.881183        -0.663665
 H         0.703203        -2.116214        -0.116604
 H         1.812644         0.037655         3.753212
