19
Iteration:  1343charge 0 multiplicity 1
 C        -1.242112         0.732980         2.334050
 C         0.156996         0.968202         1.701825
 C         0.968191         2.276063         1.586321
 C         2.209143         1.414907         1.303696
 O         1.926929         0.805332        -0.046104
 C         0.867780        -0.033686         0.701547
 C         0.275823        -1.247678         0.134977
 C         1.567596         0.281866         2.047551
 O         2.086018        -0.579809         2.928265
 H        -1.187604        -0.211386         2.863161
 H        -1.540258         1.537903         3.008896
 H        -2.046474         0.776620         1.595730
 H         0.829588         3.012810         0.822997
 H         1.134083         2.656282         2.608154
 H         3.246161         1.940268         1.254302
 H        -0.635945        -1.631433         0.715849
 H        -0.137429        -0.982126        -0.846021
 H         1.092682        -1.887602         0.007653
 H         1.960262        -0.292396         3.837777
