19
Iteration:  1140
 C        -1.252231         0.748083         2.292567
 C         0.209684         0.968163         1.738417
 C         0.958782         2.230659         1.626433
 C         2.231838         1.487293         1.332917
 O         1.915856         0.768192        -0.003210
 C         0.917528        -0.013589         0.735208
 C         0.150218        -1.132021         0.102298
 C         1.543006         0.249846         2.041954
 O         2.180130        -0.653119         2.857715
 H        -1.777691         1.643464         2.675362
 H        -1.759980         0.229890         1.419136
 H        -1.238849        -0.091105         3.075498
 H         0.673763         3.031014         0.792276
 H         0.957625         3.022988         2.414335
 H         3.265429         1.688725         1.340491
 H        -0.636516        -1.409056         0.788142
 H        -0.328114        -0.570314        -0.753780
 H         0.610486        -2.231666         0.020240
 H         2.162185        -0.378888         3.822933
