19
Iteration:  2986charge 0 multiplicity 1
 C        -1.092614         0.674399         2.410486
 C         0.284833         0.909031         1.705221
 C         0.988062         2.261775         1.398458
 C         2.184570         1.416077         1.184031
 O         1.809902         0.801694        -0.102602
 C         0.957361        -0.087618         0.735742
 C         0.266718        -1.210541         0.117667
 C         1.551872         0.304415         2.068843
 O         1.970984        -0.404339         3.198473
 H        -1.326423         1.575403         2.872669
 H        -1.908521         0.608720         1.628810
 H        -1.304899        -0.185911         3.004149
 H         0.536642         2.980783         0.701276
 H         1.052136         2.867809         2.338897
 H         3.355918         1.693946         1.342108
 H        -0.518971        -1.633482         0.782652
 H        -0.248908        -0.795006        -0.708522
 H         0.855654        -2.047794        -0.225824
 H         1.885728        -1.382187         2.998343
