19
Iteration:  1813
 C        -1.175958         0.821898         2.382811
 C         0.164815         0.999854         1.726601
 C         0.861555         2.328976         1.538039
 C         2.127585         1.425378         1.213896
 O         1.905622         0.726756        -0.081580
 C         1.008045        -0.047050         0.695425
 C         0.445194        -1.303820         0.211858
 C         1.476667         0.243746         1.986228
 O         2.006806        -0.543993         2.994386
 H        -1.135982         0.746101         3.540058
 H        -1.667122         1.774133         2.138357
 H        -1.726675        -0.063993         2.079086
 H         0.562648         2.832356         0.580185
 H         0.883153         2.906594         2.434998
 H         3.147771         1.701207         1.124967
 H         0.075263        -1.954088         1.043910
 H        -0.287684        -1.147006        -0.624231
 H         1.248472        -1.907829        -0.182944
 H         1.965753        -0.199345         3.904356
