19
Iteration:   590charge 0 multiplicity 1
 C        -1.109404         0.745889         2.397088
 C         0.205784         0.976240         1.797092
 C         0.907271         2.230541         1.421368
 C         2.137916         1.472839         1.165500
 O         1.963102         0.734561        -0.120589
 C         0.995373        -0.059651         0.681402
 C         0.310611        -1.276019         0.170826
 C         1.480019         0.295091         2.084611
 O         1.993693        -0.485557         3.056118
 H        -0.950936         0.298475         3.416654
 H        -1.678847         1.724153         2.468138
 H        -1.681166        -0.111587         1.931856
 H         0.577107         2.691577         0.507142
 H         0.954102         2.911312         2.305355
 H         3.196245         1.878715         1.247061
 H        -0.368838        -1.517551         1.083112
 H        -0.442711        -0.987886        -0.638919
 H         0.766658        -2.150325        -0.138982
 H         1.755373        -0.098636         3.937190
