19
Iteration:  3954
 C        -0.997411         0.658850         2.588282
 C         0.212105         1.035016         1.762801
 C         0.938411         2.386274         1.469027
 C         2.194584         1.473805         1.164285
 O         1.878695         0.723741        -0.112882
 C         0.923839        -0.037228         0.649933
 C         0.376573        -1.239625         0.003270
 C         1.470946         0.209455         2.013167
 O         1.893371        -0.522032         3.117162
 H        -1.368979         1.197537         3.445811
 H        -1.978916         0.693564         1.963667
 H        -1.123786        -0.462435         2.959385
 H         0.528131         2.788275         0.581867
 H         1.028200         3.094622         2.331570
 H         3.275677         1.670627         1.108122
 H        -0.300616        -1.771760         0.681063
 H        -0.220656        -1.108902        -1.008127
 H         1.204768        -1.993917        -0.139518
 H         1.733797         0.070502         3.903314
