19
Iteration:  1762
 C        -1.007105         0.761378         2.446432
 C         0.241278         1.024064         1.680580
 C         0.897817         2.294788         1.385471
 C         2.140004         1.518661         1.128799
 O         1.781938         0.782094        -0.073824
 C         0.967352        -0.014100         0.735880
 C         0.532859        -1.340647         0.214969
 C         1.531049         0.288930         2.070610
 O         1.791616        -0.597677         3.048677
 H        -0.858790         0.365297         3.396455
 H        -1.640046         1.687146         2.461823
 H        -1.643943        -0.053479         1.881903
 H         0.485989         2.919146         0.656691
 H         1.267440         2.749384         2.355614
 H         3.157708         1.827874         1.262371
 H         0.006312        -1.870531         0.943702
 H        -0.054705        -1.106831        -0.608924
 H         1.330478        -2.145955        -0.181524
 H         1.683176        -0.473899         3.983428
