19
Iteration:   768
 C        -1.200679         0.764024         2.293739
 C         0.142727         0.922363         1.650777
 C         0.893003         2.247380         1.606311
 C         2.251715         1.437639         1.247672
 O         1.938048         0.740203        -0.047236
 C         0.874632        -0.016299         0.704711
 C         0.174512        -1.289680         0.167978
 C         1.551556         0.367486         2.035544
 O         2.170762        -0.533456         3.010470
 H        -1.778346         1.718987         2.461812
 H        -1.951581         0.201832         1.648579
 H        -1.071766         0.194274         3.293544
 H         0.538696         2.968744         0.836255
 H         0.912587         2.726411         2.565155
 H         3.232559         1.689485         1.399081
 H        -0.457733        -1.952778         0.785124
 H        -0.424596        -0.999569        -0.680917
 H         1.059266        -1.860367        -0.241704
 H         2.516012         0.050244         3.744861
