19
Iteration:  4441charge 0 multiplicity 1
 C        -1.185200         0.697840         2.177119
 C         0.306156         0.933024         1.780535
 C         0.865846         2.289480         1.583378
 C         2.190877         1.480532         1.166787
 O         1.712373         0.779906        -0.111265
 C         0.999474        -0.076327         0.731143
 C         0.216586        -1.241913         0.140145
 C         1.690138         0.245082         2.111664
 O         2.180441        -0.496691         3.147881
 H        -1.456777         1.510917         2.857657
 H        -1.840985         0.802091         1.219934
 H        -1.417924        -0.259655         2.582358
 H         0.419285         3.017148         0.764303
 H         0.829876         2.772920         2.561030
 H         3.241403         1.885504         1.015012
 H        -0.830085        -1.036920         0.341331
 H         0.319559        -1.198328        -0.870958
 H         0.512877        -2.259305         0.533678
 H         1.502767        -0.457424         3.832813
