19
Iteration:  1446
 C        -1.135725         0.644002         2.365051
 C         0.201873         0.975325         1.639782
 C         0.928866         2.234298         1.483908
 C         2.267307         1.447914         1.282415
 O         1.904792         0.782285        -0.034960
 C         0.937759         0.041797         0.675191
 C         0.241853        -1.260036         0.138368
 C         1.546530         0.310161         2.017197
 O         1.998267        -0.557459         3.052680
 H        -2.066735         0.704674         1.761010
 H        -1.177689        -0.276876         2.972238
 H        -1.388014         1.533207         2.998080
 H         0.423432         2.975649         0.900674
 H         1.148889         2.843775         2.400782
 H         3.217803         1.881409         1.296432
 H         0.042456        -1.798317         1.024120
 H        -0.715937        -1.160828        -0.432567
 H         1.076804        -1.820554        -0.513004
 H         1.693340         0.038253         3.788195
