19
Iteration:  3701
 C        -1.053254         0.572075         2.482743
 C         0.236211         1.016067         1.847930
 C         0.900801         2.302776         1.416438
 C         2.161251         1.421869         1.145938
 O         1.881405         0.758969        -0.145304
 C         1.055819        -0.091375         0.720790
 C         0.227681        -1.146647        -0.047495
 C         1.553427         0.228190         2.098277
 O         1.920678        -0.498157         3.196429
 H        -1.297309         1.449478         2.968098
 H        -1.864619         0.173143         1.790068
 H        -0.995471        -0.206006         3.309123
 H         0.511502         2.847560         0.406137
 H         1.146939         3.156071         2.149300
 H         3.139476         1.843273         1.073980
 H        -0.767026        -1.378532         0.351134
 H        -0.006653        -0.598591        -0.929557
 H         0.870401        -2.034056        -0.073163
 H         2.006117         0.175292         3.873342
