19
Iteration:  1435
 C        -1.123599         0.698456         2.404811
 C         0.174517         0.990139         1.684562
 C         0.900109         2.396820         1.548309
 C         2.219429         1.392105         1.189803
 O         1.959039         0.788473        -0.038035
 C         0.878840         0.023354         0.616029
 C         0.341917        -1.266801         0.164985
 C         1.493746         0.229475         2.018140
 O         1.960105        -0.571239         3.020813
 H        -1.822920         0.348853         1.636207
 H        -1.026346        -0.102552         3.167903
 H        -1.366630         1.622826         2.983826
 H         0.717874         2.971368         0.652889
 H         0.981151         2.869748         2.565624
 H         3.168769         1.826039         1.305331
 H         0.239933        -1.877229         1.029699
 H        -0.630504        -1.311441        -0.374188
 H         1.127755        -1.904804        -0.477425
 H         1.843299        -0.237084         3.966084
