19
Iteration:  1130
 C        -1.257815         0.714885         2.241141
 C         0.209475         0.953683         1.778073
 C         0.936023         2.340259         1.586857
 C         2.198452         1.427158         1.278357
 O         1.828216         0.779041        -0.042145
 C         0.999258        -0.024311         0.723286
 C         0.156722        -1.067970         0.131107
 C         1.606424         0.218445         2.063519
 O         2.210571        -0.704207         2.957871
 H        -1.738101         1.666588         2.549936
 H        -1.981319         0.332915         1.476257
 H        -1.325434         0.052944         3.145636
 H         0.408456         2.974521         0.764701
 H         1.243242         2.780907         2.565138
 H         3.214280         1.689553         1.524323
 H        -0.740068        -1.142695         0.672039
 H        -0.233986        -0.664474        -0.904142
 H         0.674606        -2.073557        -0.231311
 H         2.245587        -0.325541         3.864029
