19
Iteration:  4024charge 0 multiplicity 1
 C        -1.221480         0.736001         2.198477
 C         0.237727         0.927408         1.806497
 C         0.934425         2.236305         1.580793
 C         2.264550         1.437916         1.228426
 O         1.857975         0.798688        -0.070491
 C         0.896319         0.037436         0.794476
 C         0.229288        -1.300345         0.249050
 C         1.542515         0.363862         2.033898
 O         2.155274        -0.558766         2.925696
 H        -1.726068         1.597566         2.818556
 H        -1.848285         0.738250         1.223576
 H        -1.498060        -0.234284         2.750322
 H         0.482548         2.765277         0.703774
 H         1.072924         2.770531         2.463397
 H         3.347020         1.763750         1.282523
 H        -0.374225        -1.880704         1.004710
 H        -0.557931        -1.041246        -0.481675
 H         0.742740        -2.105461        -0.289769
 H         2.117226        -0.230595         3.848046
