19
Iteration:  4828
 C        -1.111785         0.579957         2.182898
 C         0.279517         0.894689         1.788590
 C         0.888246         2.293398         1.460561
 C         2.244355         1.435115         1.122194
 O         1.777429         0.825941        -0.078671
 C         0.930165        -0.034642         0.755248
 C         0.143825        -1.124662         0.104932
 C         1.592278         0.210980         2.110486
 O         2.082571        -0.414170         3.281294
 H        -1.448227         1.144207         3.050002
 H        -1.699703         0.758087         1.303029
 H        -1.357551        -0.412949         2.545817
 H         0.502502         2.705447         0.570442
 H         1.104200         2.834338         2.389510
 H         3.267108         1.879723         1.235400
 H        -0.817004        -0.738902        -0.292187
 H         0.810323        -1.917660        -0.531877
 H        -0.125870        -1.840839         0.844001
 H         2.962582        -0.806615         3.064354
