19
Iteration:   956
 C        -1.243168         0.769516         2.320104
 C         0.170039         0.973764         1.719870
 C         1.025547         2.204468         1.638915
 C         2.171934         1.387749         1.305930
 O         1.858700         0.828006        -0.070173
 C         0.836413        -0.003043         0.702382
 C         0.228796        -1.216915         0.094389
 C         1.562633         0.241702         1.988277
 O         2.230841        -0.542819         2.976052
 H        -1.274909        -0.259598         2.760491
 H        -1.724853         1.488673         3.006887
 H        -1.960539         0.832074         1.442615
 H         0.691207         2.938700         0.853402
 H         1.100047         2.652048         2.611715
 H         3.207597         1.751194         1.435622
 H        -0.231217        -1.753471         0.866768
 H        -0.499398        -0.970664        -0.725002
 H         1.107482        -1.950777        -0.046522
 H         1.694236        -0.334312         3.763890
