19
Iteration:   375charge 0 multiplicity 1
 C        -1.192520         0.675198         2.300939
 C         0.162026         0.906292         1.638020
 C         0.909236         2.216962         1.428120
 C         2.220308         1.381838         1.241230
 O         1.883770         0.725052         0.010520
 C         0.853850        -0.046204         0.720462
 C         0.211578        -1.192390         0.098593
 C         1.580402         0.265574         2.063729
 O         2.223293        -0.362192         3.119543
 H        -1.577433         1.589952         2.732155
 H        -1.997037         0.379192         1.649935
 H        -1.099673        -0.046634         3.166420
 H         0.672041         3.023449         0.778095
 H         0.888193         2.655242         2.438181
 H         3.211525         1.987280         1.486946
 H        -0.680117        -1.658657         0.610850
 H        -0.082269        -0.921046        -0.856719
 H         0.991892        -1.924094        -0.133463
 H         1.591566        -0.136696         3.860798
