19
Iteration:   975
 C        -1.208699         0.710604         2.363096
 C         0.216434         0.978566         1.779597
 C         1.006798         2.366886         1.584727
 C         2.236564         1.417686         1.245573
 O         1.802505         0.840140        -0.054034
 C         0.934909        -0.003477         0.691805
 C         0.309216        -1.271573         0.064250
 C         1.523182         0.219910         2.029670
 O         2.055059        -0.624018         2.968824
 H        -1.141510         0.055621         3.213258
 H        -1.549443         1.705441         2.724398
 H        -2.084161         0.446944         1.733157
 H         0.670374         3.160438         0.811916
 H         1.117746         2.921698         2.540421
 H         3.265754         1.638955         1.219536
 H        -0.098500        -2.015380         0.852553
 H        -0.486183        -0.816847        -0.536381
 H         1.090134        -1.971439        -0.457887
 H         1.835503        -0.366458         3.860300
