19
Iteration:  1288charge 0 multiplicity 1
 C        -1.184941         0.634651         2.288876
 C         0.294509         0.889187         1.788252
 C         0.882534         2.251794         1.516107
 C         2.293181         1.531389         1.179489
 O         1.798115         0.751915        -0.060882
 C         0.969314        -0.050079         0.761362
 C         0.178710        -1.015442         0.001413
 C         1.612721         0.246027         2.094568
 O         2.056905        -0.618031         3.138213
 H        -1.189460         0.191454         3.288472
 H        -1.613687         1.617387         2.387115
 H        -1.745212        -0.038306         1.681239
 H         0.434784         2.706145         0.641454
 H         1.052476         2.853098         2.385518
 H         3.433765         1.806525         1.106803
 H        -0.543968        -1.549432         0.726285
 H        -0.241186        -0.423175        -0.858542
 H         0.737012        -1.791303        -0.391826
 H         2.006408        -0.129357         3.947700
