19
Iteration:  2014
 C        -1.153837         0.719495         2.373643
 C         0.201260         1.006491         1.726170
 C         0.908054         2.330363         1.615052
 C         2.190638         1.501540         1.173039
 O         1.881283         0.747235        -0.028806
 C         0.922144        -0.046384         0.656535
 C         0.307003        -1.242379         0.111860
 C         1.519652         0.299272         1.980840
 O         2.027087        -0.665929         2.979567
 H        -1.943715         0.811953         1.740628
 H        -1.065267        -0.232047         2.963634
 H        -1.313382         1.470761         3.162850
 H         0.624793         3.041715         0.845897
 H         1.072295         2.978956         2.508718
 H         3.192550         2.001265         1.528519
 H        -0.344060        -1.514488         1.029690
 H        -0.247717        -1.289194        -0.753743
 H         1.185634        -1.996412        -0.002558
 H         2.123657        -0.158536         3.815405
