19
Iteration:  2223charge 0 multiplicity 1
 C        -1.178992         0.757830         2.279427
 C         0.181363         1.035516         1.765641
 C         0.943646         2.306065         1.545830
 C         2.181547         1.464222         1.191234
 O         1.804648         0.723813         0.012373
 C         0.897733        -0.055078         0.762226
 C         0.284844        -1.239546         0.100076
 C         1.576309         0.200568         2.018992
 O         2.163899        -0.550931         3.000766
 H        -1.670037         1.643632         2.467466
 H        -1.887344         0.085493         1.702367
 H        -1.052319         0.235474         3.259256
 H         0.571850         3.073963         0.867600
 H         1.182225         2.860487         2.449930
 H         3.161519         1.779910         1.031159
 H        -0.603366        -1.549890         0.696508
 H        -0.169797        -1.037986        -0.814438
 H         1.042365        -1.985969        -0.018033
 H         1.855328        -0.267221         3.893836
