19
Iteration:   999charge 0 multiplicity 1
 C        -1.033153         0.736233         2.403161
 C         0.299953         0.966239         1.823572
 C         0.864379         2.248037         1.520700
 C         2.231044         1.538333         1.141903
 O         1.836094         0.784795        -0.079777
 C         0.887798         0.076995         0.756746
 C         0.334244        -1.184747         0.098194
 C         1.615644         0.204264         2.038953
 O         1.831813        -0.719094         2.992160
 H        -0.828198         0.278764         3.394052
 H        -1.618808         1.660623         2.485411
 H        -1.774300         0.097308         1.848797
 H         0.495641         3.080237         0.830538
 H         1.085855         2.799129         2.432728
 H         3.159095         2.124748         1.114539
 H         0.202616        -2.058090         0.711593
 H        -0.534092        -0.872654        -0.551438
 H         1.317287        -1.581649        -0.479061
 H         1.962304        -0.368791         3.920236
