19
Iteration:  2519charge 0 multiplicity 1
 C        -1.084055         0.823769         2.473112
 C         0.188709         0.981117         1.698375
 C         0.905539         2.254928         1.543867
 C         2.209309         1.464630         1.165608
 O         1.847055         0.720755        -0.093229
 C         0.874109         0.002584         0.724462
 C         0.414343        -1.237888         0.078768
 C         1.534425         0.246397         2.006684
 O         1.942011        -0.608876         3.056789
 H        -1.633607         1.748099         2.293954
 H        -1.803782         0.013056         2.079466
 H        -0.942308         0.684250         3.586780
 H         0.452910         2.909276         0.791356
 H         1.172212         2.797920         2.480462
 H         3.257009         1.849906         1.046604
 H        -0.157175        -1.921241         0.853002
 H        -0.193871        -1.007005        -0.849490
 H         1.281966        -1.914201        -0.184159
 H         1.987973        -0.139793         3.897572
