19
Iteration:  4542charge 0 multiplicity 1
 C        -1.042413         0.773248         2.403413
 C         0.263099         0.909355         1.807317
 C         0.908939         2.244015         1.519215
 C         2.153775         1.605705         1.122396
 O         1.740468         0.852831        -0.099844
 C         0.913268        -0.033103         0.733437
 C         0.478861        -1.408201         0.173886
 C         1.532316         0.267725         1.996983
 O         1.903581        -0.578147         3.042918
 H        -1.142626         0.964961         3.503023
 H        -1.814264         1.361894         1.782124
 H        -1.203781        -0.330743         2.249410
 H         0.554394         2.870300         0.632978
 H         1.069880         2.818664         2.505135
 H         3.171102         1.994437         1.043540
 H         0.066977        -1.122819        -0.801032
 H         1.213546        -2.222376         0.036673
 H        -0.354525        -1.759788         0.764038
 H         2.190833        -0.031872         3.821104
