19
Iteration:   998
 C        -1.028042         0.743600         2.401805
 C         0.293151         0.968629         1.823674
 C         0.865153         2.240861         1.524937
 C         2.228331         1.537473         1.142020
 O         1.833149         0.781760        -0.074637
 C         0.887615         0.073541         0.755371
 C         0.331891        -1.179163         0.092571
 C         1.616940         0.205328         2.037935
 O         1.838742        -0.715941         2.990339
 H        -0.842086         0.255537         3.363265
 H        -1.626757         1.661099         2.488047
 H        -1.751900         0.097863         1.821119
 H         0.519442         3.096581         0.829627
 H         1.088585         2.807967         2.435916
 H         3.127185         2.115432         1.140257
 H         0.205407        -2.078246         0.749815
 H        -0.540404        -0.903852        -0.566354
 H         1.323892        -1.587020        -0.470795
 H         1.958810        -0.366180         3.922396
