19
Iteration:  3198
 C        -1.114362         0.813964         2.243813
 C         0.289237         0.924774         1.779261
 C         0.884527         2.220269         1.527921
 C         2.242215         1.409934         1.078566
 O         1.730738         0.739136        -0.047447
 C         0.978593        -0.085180         0.794277
 C         0.295780        -1.132916         0.114062
 C         1.550095         0.227044         2.105790
 O         1.977379        -0.478235         3.163328
 H        -1.369877         1.360144         3.139505
 H        -1.773314         0.921969         1.443978
 H        -1.327451        -0.218750         2.711402
 H         0.570165         2.846712         0.657071
 H         1.052064         2.999699         2.331305
 H         3.280613         1.660964         0.999222
 H        -0.568570        -1.508686         0.649277
 H         0.035305        -0.920566        -0.864688
 H         0.876304        -2.021753         0.135130
 H         2.933560        -0.586427         2.937761
