19
Iteration:  4439
 C        -1.165661         0.703828         2.181731
 C         0.299999         0.941309         1.779024
 C         0.846882         2.284694         1.595788
 C         2.203270         1.481472         1.186617
 O         1.713916         0.768044        -0.115933
 C         1.005198        -0.071056         0.737638
 C         0.205975        -1.248788         0.142329
 C         1.698373         0.216632         2.089263
 O         2.165253        -0.470727         3.141250
 H        -1.509722         1.527555         2.847809
 H        -1.837645         0.800468         1.201051
 H        -1.364067        -0.322311         2.580326
 H         0.460801         3.046068         0.818447
 H         0.872896         2.816699         2.575198
 H         3.223098         1.905841         0.979068
 H        -0.858241        -1.111120         0.340981
 H         0.351762        -1.164266        -0.975794
 H         0.508202        -2.247033         0.516351
 H         1.528468        -0.464910         3.875458
