19
Iteration:  2769charge 0 multiplicity 1
 C        -1.018183         0.681836         2.513869
 C         0.115889         1.031658         1.654811
 C         1.051869         2.340514         1.444174
 C         2.190179         1.418244         1.238895
 O         1.863335         0.785944        -0.074438
 C         0.857087        -0.051718         0.733560
 C         0.328635        -1.304655         0.069035
 C         1.529707         0.234256         2.014722
 O         1.856736        -0.431560         3.117246
 H        -1.627768         1.554282         2.647436
 H        -1.789893        -0.027036         2.017735
 H        -0.580769         0.355135         3.507135
 H         0.859385         2.957527         0.542925
 H         1.160806         2.922549         2.413680
 H         3.300708         1.654204         1.425391
 H        -0.242279        -2.027922         0.800602
 H        -0.354463        -0.998971        -0.764249
 H         1.167387        -1.893858        -0.432205
 H         2.470833        -1.115776         2.839054
