19
Iteration:  2633charge 0 multiplicity 1
 C        -1.208564         0.773182         2.148473
 C         0.222219         0.834605         1.812232
 C         0.974891         2.241812         1.588920
 C         2.188372         1.474395         1.187347
 O         1.778600         0.769527        -0.061069
 C         0.944233        -0.021161         0.797437
 C         0.146163        -1.101593         0.112167
 C         1.685092         0.228733         2.118240
 O         2.140578        -0.600207         3.063989
 H        -1.828921         0.273527         1.310935
 H        -1.393614         0.205657         3.028711
 H        -1.583928         1.770482         2.350622
 H         0.429634         2.737948         0.797031
 H         1.130186         2.867256         2.407993
 H         3.358944         1.810421         0.918415
 H        -0.385316        -1.598565         0.831025
 H        -0.438591        -0.647426        -0.680094
 H         0.710614        -1.900270        -0.373795
 H         2.429144        -0.152659         3.898847
